<?xml version="1.0" encoding="UTF-8"?>

<!-- generated on 05/31/17 15:22:57 by SUMO polyconvert Version 0.30.0
<?xml version="1.0" encoding="UTF-8"?>

<configuration xmlns:xsi="http://www.w3.org/2001/XMLSchema-instance" xsi:noNamespaceSchemaLocation="http://sumo.dlr.de/xsd/polyconvertConfiguration.xsd">

    <input>
        <net-file value="map.net.xml"/>
        <osm-files value="map.osm"/>
        <type-file value="typemap.xml"/>
    </input>

    <output>
        <output-file value="map.poly.xml"/>
    </output>

    <processing>
        <poi-layer-offset value="5"/>
    </processing>

</configuration>
-->

<additional xmlns:xsi="http://www.w3.org/2001/XMLSchema-instance" xsi:noNamespaceSchemaLocation="http://sumo.dlr.de/xsd/additional_file.xsd">
    <location netOffset="-678753.51,-4850879.89" convBoundary="-5240.67,-2549.10,4920.90,4957.79" origBoundary="11.156767,43.765307,11.281953,43.833128" projParameter="+proj=utm +zone=32 +ellps=WGS84 +datum=WGS84 +units=m +no_defs"/>

    <poly id="110355063" type="amenity" color="237,199,199" fill="1" layer="-1.00" shape="639.72,807.48 645.83,823.16 688.55,806.64 682.45,790.96 657.21,800.71 656.21,799.53 648.16,802.25 648.62,804.04 639.72,807.48"/>
    <poly id="110355063#1" type="building" color="255,230,230" fill="1" layer="-1.00" shape="639.72,807.48 645.83,823.16 688.55,806.64 682.45,790.96 657.21,800.71 656.21,799.53 648.16,802.25 648.62,804.04 639.72,807.48"/>
    <poly id="110355065" type="building" color="255,230,230" fill="1" layer="-1.00" shape="948.21,825.15 941.03,805.98 997.69,784.91 1004.87,804.08 948.21,825.15"/>
    <poly id="110355065#1" type="shop" color="237,199,255" fill="1" layer="-1.00" shape="948.21,825.15 941.03,805.98 997.69,784.91 1004.87,804.08 948.21,825.15"/>
    <poly id="110355066" type="amenity" color="237,199,199" fill="1" layer="-1.00" shape="1032.17,946.25 1050.92,930.91 1025.70,900.31 1014.06,909.84 1015.92,912.09 1008.82,917.91 1032.17,946.25"/>
    <poly id="110355066#1" type="building" color="255,230,230" fill="1" layer="-1.00" shape="1032.17,946.25 1050.92,930.91 1025.70,900.31 1014.06,909.84 1015.92,912.09 1008.82,917.91 1032.17,946.25"/>
    <poly id="110355068" type="building" color="255,230,230" fill="1" layer="-1.00" shape="623.02,810.54 633.13,834.94 636.23,843.33 647.21,872.43 558.85,906.72 534.65,844.83 623.02,810.54"/>
    <poly id="113104924" type="amenity" color="237,199,199" fill="1" layer="-1.00" shape="748.69,504.79 757.09,517.71 778.56,506.45 768.95,490.38 748.69,504.79"/>
    <poly id="113104924#1" type="building" color="255,230,230" fill="1" layer="-1.00" shape="748.69,504.79 757.09,517.71 778.56,506.45 768.95,490.38 748.69,504.79"/>
    <poly id="113104958" type="amenity" color="237,199,199" fill="1" layer="-1.00" shape="727.43,468.38 730.65,473.32 748.02,461.63 743.12,455.04 727.43,468.38"/>
    <poly id="113104958#1" type="building" color="255,230,230" fill="1" layer="-1.00" shape="727.43,468.38 730.65,473.32 748.02,461.63 743.12,455.04 727.43,468.38"/>
    <poly id="114389303" type="parking" color="184,184,179" fill="1" layer="-1.00" shape="521.36,941.41 566.34,922.56 534.25,846.48 489.25,865.33 521.36,941.41"/>
    <poly id="114396849" type="tourism" color="207,245,201" fill="1" layer="-2.00" shape="721.01,1055.77 805.19,1055.18 734.66,883.30 721.01,1055.77"/>
    <poly id="116033061" type="amenity" color="237,199,199" fill="1" layer="-1.00" shape="715.75,418.33 713.95,415.77 710.87,413.51 706.31,412.39 702.12,413.12 698.54,415.40 697.79,416.19 696.01,419.11 695.20,422.97 695.97,427.23 698.17,430.66 701.46,433.02 705.41,434.01 705.72,434.03 709.64,433.44 713.48,431.12 715.92,427.76 716.92,423.55 716.67,420.91 715.75,418.33"/>
    <poly id="116033061#1" type="building" color="255,230,230" fill="1" layer="-1.00" shape="715.75,418.33 713.95,415.77 710.87,413.51 706.31,412.39 702.12,413.12 698.54,415.40 697.79,416.19 696.01,419.11 695.20,422.97 695.97,427.23 698.17,430.66 701.46,433.02 705.41,434.01 705.72,434.03 709.64,433.44 713.48,431.12 715.92,427.76 716.92,423.55 716.67,420.91 715.75,418.33"/>
    <poly id="116033064" type="amenity" color="237,199,199" fill="1" layer="-1.00" shape="776.98,424.54 781.35,420.60 782.42,413.90 778.23,407.77 769.19,415.43 776.98,424.54"/>
    <poly id="116033064#1" type="building" color="255,230,230" fill="1" layer="-1.00" shape="776.98,424.54 781.35,420.60 782.42,413.90 778.23,407.77 769.19,415.43 776.98,424.54"/>
    <poly id="116033067" type="building" color="255,230,230" fill="1" layer="-1.00" shape="739.43,382.45 763.82,409.21 766.14,407.78 767.49,409.71 777.10,401.38 758.14,367.70 739.43,382.45"/>
    <poly id="116033072" type="amenity" color="237,199,199" fill="1" layer="-1.00" shape="790.76,443.41 785.09,436.53 795.55,431.27 799.52,438.50 790.76,443.41"/>
    <poly id="116033072#1" type="building" color="255,230,230" fill="1" layer="-1.00" shape="790.76,443.41 785.09,436.53 795.55,431.27 799.52,438.50 790.76,443.41"/>
    <poly id="116068465" type="building" color="255,230,230" fill="1" layer="-1.00" shape="494.52,396.90 491.99,385.92 494.48,385.38 492.77,379.07 498.23,377.81 496.86,372.62 501.28,371.47 502.51,376.82 507.68,375.56 509.32,382.14 511.30,381.56 513.83,392.27 494.52,396.90"/>
    <poly id="116068465#1" type="tourism" color="207,245,201" fill="1" layer="-2.00" shape="494.52,396.90 491.99,385.92 494.48,385.38 492.77,379.07 498.23,377.81 496.86,372.62 501.28,371.47 502.51,376.82 507.68,375.56 509.32,382.14 511.30,381.56 513.83,392.27 494.52,396.90"/>
    <poly id="116231623" type="landuse" color="194,194,130" fill="1" layer="-3.00" shape="474.29,454.03 481.40,456.42 489.12,456.91 495.62,456.11 501.87,454.77 506.88,452.85 511.91,450.51 515.43,448.27 509.69,445.91 504.20,445.21 498.12,445.32 491.62,445.70 485.23,447.45 479.65,449.64 474.29,454.03"/>
    <poly id="116231658" type="building" color="255,230,230" fill="1" layer="-1.00" shape="497.73,533.15 502.69,540.39 510.06,535.37 505.10,528.14 497.73,533.15"/>
    <poly id="117034662" type="building" color="255,230,230" fill="1" layer="-1.00" shape="476.75,426.73 484.10,429.53 481.78,435.56 481.32,436.81 473.93,434.08 474.23,433.28 476.75,426.73"/>
    <poly id="117034663" type="building" color="255,230,230" fill="1" layer="-1.00" shape="551.92,478.11 547.86,470.75 553.76,467.52 558.82,464.75 562.87,472.12 557.51,475.05 551.92,478.11"/>
    <poly id="117447507" type="landuse" color="194,194,130" fill="1" layer="-3.00" shape="575.21,540.31 575.24,545.81 576.06,549.86 577.43,554.27 579.06,557.99 582.47,563.39 585.99,567.43 589.92,571.34 593.23,573.86 593.06,570.33 592.90,567.18 591.67,562.20 589.64,556.77 587.16,552.50 584.29,548.53 581.35,544.99 578.62,542.44 575.21,540.31"/>
    <poly id="140992162" type="building" color="255,230,230" fill="1" layer="-1.00" shape="227.19,1036.30 235.33,1029.99 256.63,1057.30 248.49,1063.60 227.19,1036.30"/>
    <poly id="140992163" type="building" color="255,230,230" fill="1" layer="-1.00" shape="359.01,1080.20 385.61,1118.35 458.70,1068.63 443.91,1047.06 388.23,1085.89 374.99,1070.07 359.01,1080.20"/>
    <poly id="140992163#1" type="tourism" color="207,245,201" fill="1" layer="-2.00" shape="359.01,1080.20 385.61,1118.35 458.70,1068.63 443.91,1047.06 388.23,1085.89 374.99,1070.07 359.01,1080.20"/>
    <poly id="140992164" type="building" color="255,230,230" fill="1" layer="-1.00" shape="449.24,931.69 475.49,921.77 471.13,910.33 444.89,920.25 449.24,931.69"/>
    <poly id="140992165" type="building" color="255,230,230" fill="1" layer="-1.00" shape="260.08,1015.73 265.27,1023.62 275.62,1015.93 270.00,1008.03 260.08,1015.73"/>
    <poly id="140992166" type="building" color="255,230,230" fill="1" layer="-1.00" shape="216.70,1037.55 256.23,1007.32 249.86,999.06 210.33,1029.29 216.70,1037.55"/>
    <poly id="140992167" type="building" color="255,230,230" fill="1" layer="-1.00" shape="463.28,893.23 486.47,883.78 482.09,873.14 458.91,882.60 463.28,893.23"/>
    <poly id="140992168" type="building" color="255,230,230" fill="1" layer="-1.00" shape="394.24,921.66 419.22,911.23 414.59,900.19 389.61,910.61 394.24,921.66"/>
    <poly id="140992169" type="building" color="255,230,230" fill="1" layer="-1.00" shape="413.74,947.03 439.40,936.79 434.91,925.62 409.25,935.87 413.74,947.03"/>
    <poly id="140992170" type="building" color="255,230,230" fill="1" layer="-1.00" shape="252.84,1041.48 258.65,1049.31 285.38,1029.65 279.56,1021.81 252.84,1041.48"/>
    <poly id="140992171" type="building" color="255,230,230" fill="1" layer="-1.00" shape="429.93,906.94 452.96,898.00 449.03,887.94 426.00,896.88 429.93,906.94"/>
    <poly id="182034093" type="tourism" color="207,245,201" fill="1" layer="-2.00" shape="906.08,514.92 966.55,485.95 958.52,474.72 946.80,479.99 887.12,508.94 878.14,513.32 874.86,522.28 876.41,528.44 895.25,561.53 920.87,547.39 906.08,514.92"/>
    <poly id="274268774" type="tourism" color="207,245,201" fill="1" layer="-2.00" shape="1031.03,478.21 1024.62,483.15 1029.02,473.32 1031.03,478.21"/>
    <poly id="294925930" type="water" color="181,209,209" fill="0" layer="-4.00" shape="3540.42,4957.79 3522.93,4948.72 3493.90,4926.47 3477.75,4905.82 3462.13,4874.59 3448.68,4855.87 3444.55,4850.12 3407.60,4821.08 3357.97,4782.86 3328.88,4753.28 3298.75,4715.33 3287.25,4701.01 3267.88,4676.87 3230.97,4646.06 3198.58,4625.73 3152.79,4595.43 3129.76,4584.71 3118.08,4576.31 3111.29,4565.51 3106.84,4542.92 3102.88,4502.41 3101.56,4467.28 3093.17,4449.62 3086.07,4440.34 3077.90,4424.46 3076.14,4405.22 3082.26,4385.18 3084.58,4355.96 3078.91,4331.82 3067.01,4294.37 3053.72,4243.00 3035.98,4207.39 3015.44,4180.06 2996.04,4157.30 2970.38,4132.11 2952.30,4116.71 2936.47,4093.05 2928.88,4065.07 2919.76,4018.60 2912.71,3979.52 2890.70,3913.26 2876.24,3874.36 2867.48,3844.61 2861.32,3816.91 2854.57,3795.49 2843.10,3779.52 2837.81,3731.89 2825.33,3696.95 2804.05,3668.85 2780.77,3649.02 2759.49,3630.25 2747.22,3615.27 2703.26,3573.17 2680.13,3552.21 2678.52,3546.47 2677.77,3536.86 2671.86,3517.12 2662.03,3503.28 2644.87,3488.52 2599.48,3464.08 2575.19,3441.27 2552.98,3417.65 2539.88,3402.59 2534.84,3399.97 2527.94,3400.22 2521.44,3401.54 2510.73,3407.26 2497.20,3413.76 2484.82,3417.50 2480.68,3419.10 2472.37,3416.30 2463.74,3408.77 2456.88,3391.84 2452.86,3373.49 2450.91,3365.71 2445.66,3360.85 2433.70,3357.51 2421.38,3350.95 2396.08,3328.22 2373.70,3304.47 2360.98,3293.91 2327.03,3272.33 2296.38,3256.00 2263.92,3243.08 2233.33,3225.03 2206.38,3200.21 2183.34,3158.28 2170.56,3120.08 2161.06,3088.84 2152.05,3038.69 2146.18,3000.66 2130.03,2950.75 2119.46,2896.74 2105.46,2842.08 2092.35,2796.85 2082.77,2769.74 2054.67,2727.54 2021.52,2670.64 2009.96,2642.59 2008.10,2626.27 2014.66,2578.11 2013.78,2541.18 2013.09,2520.31 2010.30,2507.52 2006.56,2498.66 1991.98,2488.47 1976.53,2479.71 1957.76,2462.31 1943.03,2442.32 1935.29,2434.80 1924.75,2427.01 1917.77,2417.03 1898.97,2400.67 1890.98,2394.20 1889.93,2390.41 1887.47,2375.15 1890.77,2364.38 1896.33,2351.61 1904.01,2346.19 1908.93,2334.64 1920.26,2294.50 1923.16,2272.48 1922.80,2255.17 1916.56,2230.40 1887.78,2118.50 1859.73,2038.55 1837.63,1981.72 1818.83,1961.71 1800.61,1939.32 1778.86,1908.09 1762.48,1884.77 1756.12,1874.74 1740.85,1835.95 1733.25,1807.80 1731.22,1790.03 1733.85,1778.01 1740.13,1762.13 1764.52,1734.43 1785.89,1710.01 1802.22,1687.08 1807.49,1670.34 1809.17,1640.93 1806.66,1608.18 1801.21,1585.52 1791.85,1545.01 1789.30,1538.69 1785.23,1529.56 1777.85,1523.62 1735.50,1460.20 1711.72,1426.82 1692.79,1391.49 1677.21,1348.95 1648.22,1257.18 1602.27,1156.94 1584.09,1097.45 1565.18,1044.54 1553.71,1013.90 1543.60,993.35 1521.62,968.97 1499.67,944.66 1467.45,914.10 1432.77,879.38 1404.37,843.76 1353.06,791.42 1331.68,769.50 1312.04,749.68 1258.54,679.22 1219.97,614.14 1204.89,589.24 1196.18,579.27 1187.70,572.61 1175.47,564.58 1138.77,548.61 1102.52,534.55 1064.87,521.82 1043.29,512.51 1032.59,506.25 1015.43,488.20 1013.44,480.15 1011.51,464.39 1012.02,402.77 1008.00,337.39 1004.54,308.66 988.42,262.04 963.15,219.51 946.18,182.55 927.68,147.58 907.72,122.30 892.14,110.85 835.51,83.85 799.28,69.10 772.28,62.42 745.58,59.56 732.70,56.62 716.92,49.32 705.91,40.84 702.30,36.41"/>
    <poly id="30033253" type="landuse" color="194,194,130" fill="1" layer="-3.00" shape="660.15,935.84 548.71,975.37 614.50,1106.95 597.83,1115.76 612.33,1144.84 622.00,1164.80 628.25,1162.70 688.14,1142.57 693.06,1140.93 691.78,1094.57 686.91,1082.41 690.76,1080.80 690.85,1071.97 691.20,1034.79 660.15,935.84"/>
    <poly id="343557728" type="residential" color="235,235,227" fill="0" layer="-3.00" shape="3292.31,-55.85 3291.65,-65.95 3290.17,-82.72 3268.29,-80.95 3267.45,-96.01 3279.04,-97.39 3276.03,-123.08 3288.06,-124.33 3287.00,-133.76 3267.73,-131.47 3259.91,-163.16 3255.01,-191.46 3252.10,-215.45 3190.86,-230.85 3180.51,-239.78 3174.91,-240.90 3172.49,-237.60 3166.06,-217.54 3033.62,-100.30 3030.67,-97.64 3020.21,-99.12 2871.61,-124.37 2702.95,-152.43 2608.01,-167.51 2366.29,-205.49 2278.01,-221.02 2157.13,-240.63 2133.61,-246.57 2091.88,-260.75 2041.90,-289.19 1983.19,-332.78 1943.40,-389.14 1916.98,-437.38 1896.32,-493.76 1894.09,-536.16 1896.98,-601.74 1900.51,-633.70 1907.76,-655.61 1939.34,-748.49 1974.18,-822.50 2018.38,-922.11 2050.51,-986.24 2069.43,-1037.45 2113.11,-1093.75 2157.94,-1216.79 2216.11,-1201.95 2221.98,-1229.87 2216.28,-1232.45 2173.01,-1248.66 2209.96,-1342.73 2229.12,-1337.56 2249.58,-1390.45 2255.29,-1410.92 2110.91,-1459.61 2093.25,-1432.72 2052.62,-1395.55 2036.48,-1378.96 1978.31,-1279.83 1894.72,-1056.85 1921.27,-1045.70 1939.98,-1042.51 1939.32,-998.38 1899.99,-830.59 1888.80,-792.43 1847.78,-763.18 1859.66,-736.95 1864.47,-719.41 1860.28,-699.70 1844.38,-653.47 1826.52,-662.39 1806.08,-680.16 1767.71,-712.45 1758.33,-713.30 1747.87,-711.09 1726.90,-657.55 1642.04,-396.90 1625.55,-389.86 1639.14,-358.29 1585.29,-332.57 1592.23,-315.80 1640.34,-299.76 1669.96,-250.14 1661.11,-216.31 1629.23,-223.45 1616.92,-179.63 1573.59,-192.88 1561.98,-196.44 1569.93,-219.03 1580.68,-249.31 1498.89,-275.63 1448.44,-90.75 1419.42,15.61 1460.42,28.51 1411.12,190.31 1384.26,269.25 1358.23,345.37 1394.07,357.70 1384.16,392.99 1430.70,408.62 1429.17,421.32 1475.86,436.65 1455.65,489.25 1434.15,553.04 1369.79,737.63 1364.80,749.94 1340.21,732.99 1330.79,722.60 1317.24,702.66 1230.33,562.42 1190.49,565.51 1188.69,557.45 1193.20,554.38 1121.28,446.74 1055.93,499.63 1063.96,506.31 1053.84,513.35 1046.72,520.89 1171.53,569.04 1195.99,591.21 1297.36,741.18 1346.18,795.94 1339.96,811.28 1311.05,873.51 1276.36,925.92 1211.39,1024.24 1168.21,1099.65 1131.11,1162.54 1092.28,1221.76 1080.68,1239.73 1053.05,1275.58 953.39,1448.62 890.58,1576.79 887.14,1583.38 882.57,1594.96 876.16,1615.68 863.80,1630.07 856.21,1642.23 841.33,1666.83 815.80,1716.48 785.78,1775.05 787.06,1794.98 794.31,1806.32 810.16,1813.39 794.47,1847.38 779.75,1878.04 775.80,1876.48 773.48,1882.59 769.93,1891.91 742.41,1946.20 716.94,1992.29 693.34,2033.02 701.76,2037.83 682.42,2065.59 662.49,2088.34 629.06,2118.74 591.86,2146.10 538.26,2047.80 481.45,2072.95 463.86,2048.74 575.39,1986.34 578.75,1989.87 596.29,1980.02 539.61,1890.93 433.64,1955.27 351.51,1859.91 332.49,1877.82 300.51,1905.96 129.52,2059.22 81.98,2123.30 -32.66,2020.44 -123.72,1909.82 -38.13,1835.69 79.85,1970.36 137.76,1923.72 204.16,1883.05 239.37,1873.70 310.66,1811.15 316.94,1805.90 346.22,1828.13 487.00,1705.92 604.83,1563.82 594.31,1619.71 654.96,1673.51 774.75,1604.94 855.50,1557.20 744.04,1400.18 774.01,1377.75 740.35,1343.24 663.17,1292.14 686.12,1208.36 693.06,1140.93 691.78,1094.57 686.91,1082.41 690.76,1080.80 690.85,1071.97 691.20,1034.79 699.04,954.85 684.39,953.59 658.24,930.51 634.10,895.39 535.28,941.82 544.32,957.53 444.23,1017.66 489.78,1063.59 419.13,1116.55 199.11,1281.48 259.87,1315.52 255.65,1319.39 244.46,1329.85 240.26,1333.16 232.54,1327.92 72.45,1469.49 28.77,1437.73 88.15,1252.57 48.12,1231.69 -8.33,1146.68 333.33,903.68 258.01,812.10 236.20,821.88 110.68,864.13 -2.85,878.29 -239.47,907.19 -540.81,937.03 -683.91,944.72 -830.94,964.51 -872.27,929.02 -909.21,905.46 -946.53,839.62 -924.11,823.77 -937.35,801.21 -943.40,792.07 -944.88,773.01 -990.78,681.18 -986.79,622.06 -976.02,617.79 -919.19,526.75 -932.65,504.79 -985.22,591.33 -1013.50,605.24 -1009.23,614.95 -1089.96,646.46 -1126.52,584.82 -1156.30,598.62 -1118.87,686.60 -1245.84,749.45 -1184.04,893.98 -1106.25,859.04 -1077.08,933.02 -1158.20,993.64 -1142.23,1042.27 -1217.87,1062.67 -1211.81,1094.68 -1272.80,1112.80 -1268.88,1160.24 -1306.04,1160.98 -1320.85,1070.25 -1376.39,1078.20 -1425.24,1063.99 -1400.17,1000.15 -1494.19,1026.00 -1548.45,1022.02 -1560.76,1030.30 -1527.70,1084.49 -1556.47,1126.76 -1617.68,1157.02 -1649.78,1160.43 -1701.08,1142.75 -1844.38,1138.04 -1853.41,1106.69 -1878.34,1020.13 -2082.67,1038.81 -2181.28,1097.45 -2159.43,1130.53 -2286.62,1122.05 -2333.56,1118.17 -2406.76,1013.85 -2684.38,1026.25 -2708.58,965.77 -2629.92,895.20 -2639.04,879.42 -2620.03,848.12 -2641.63,815.70 -2598.74,759.98 -2638.85,709.00 -2596.51,642.98 -2657.13,618.18 -2679.46,646.00 -2793.47,612.85 -2794.53,587.87 -2819.39,580.33 -2854.25,623.26 -2920.32,639.59 -2923.33,656.77 -2956.49,669.67 -2966.26,647.02 -3072.12,665.75 -3057.08,716.02 -3036.26,714.04 -3020.22,760.93 -2993.22,784.89 -3016.72,824.72 -3082.55,897.01 -3198.91,986.03 -3317.92,1077.57 -3381.76,1075.02 -3475.10,944.28 -3347.64,894.32 -3372.04,836.87 -3432.33,861.92 -3449.42,821.88 -3440.67,817.80 -3478.27,736.76 -3460.74,726.90 -3521.53,608.24 -3549.49,620.42 -3614.65,439.72 -3705.13,429.55 -3706.79,461.39 -3749.28,466.26 -3753.75,504.87 -3828.02,504.64 -3835.29,585.40 -3815.71,594.48 -3817.00,610.80 -3792.85,612.30 -3787.81,650.30 -3752.39,650.37 -3738.59,685.20 -3639.82,639.56 -3603.68,710.23 -3588.78,702.01 -3541.05,793.68 -3523.47,780.33 -3488.72,839.82 -3481.76,836.51 -3449.80,901.91 -3495.34,925.67 -3542.13,933.09 -3571.22,953.79 -3650.02,962.96 -3653.92,945.59 -3589.48,893.07 -3724.98,857.70 -3797.41,846.68 -3783.68,959.49 -3837.73,966.33 -3854.88,837.94 -3922.73,823.24 -3949.03,803.58 -3971.41,769.47 -4033.43,810.35 -4069.37,649.79 -4078.47,537.70 -4083.99,451.49 -4156.68,454.70 -4160.54,536.37 -4167.65,543.93 -4165.69,635.26 -4262.06,654.25 -4294.52,607.78 -4301.16,597.28 -4351.94,623.49 -4394.46,564.70 -4422.59,582.01 -4389.04,653.46 -4450.46,689.72 -4435.78,724.58 -4505.45,745.10 -4542.02,657.20 -4509.78,646.00 -4486.70,622.50 -4503.64,578.21 -4537.52,585.92 -4583.06,444.43 -4646.65,463.39 -4642.69,479.03 -4668.95,490.35 -4659.29,519.04 -4724.54,537.14 -4745.34,472.00 -4778.31,478.92 -4794.24,425.96 -4876.80,445.32 -4872.05,529.84 -4904.07,530.68 -4905.50,552.16 -4972.26,563.37 -4971.78,576.25 -4982.69,597.48 -4979.28,632.00 -4939.30,622.72 -4928.75,683.28 -4965.64,673.72 -4986.70,686.64 -5030.03,680.28 -5134.46,655.54 -5177.20,506.38 -5198.83,507.54 -5207.67,480.58 -5240.67,487.47 -5209.45,351.48 -5144.42,108.67 -5104.85,116.62 -5094.43,48.04 -5054.79,-49.09 -4981.37,-113.42 -4930.83,-131.94 -4879.03,-128.83 -4871.27,-64.11 -4838.87,183.78 -4577.75,140.69 -4560.03,123.93 -4569.77,66.86 -4622.65,75.86 -4655.04,-107.52 -4214.83,-61.56 -3927.89,-34.24 -3677.38,-1.84 -3293.67,57.33 -3005.51,103.67 -2773.31,142.51 -2810.88,354.99 -2741.10,363.76 -2762.97,438.03 -2640.57,449.06 -2617.84,274.02 -2572.48,193.49 -2437.52,249.52 -2212.19,286.48 -2147.22,312.31 -2112.75,413.07 -2124.44,528.11 -2075.45,538.92 -2058.34,510.92 -1982.11,535.33 -1966.01,514.24 -1910.11,525.23 -1898.32,534.97 -1917.40,570.61 -1699.28,618.59 -1542.73,643.41 -1522.18,649.98 -1267.46,458.79 -1215.36,505.51 -1167.90,578.52 -1145.43,568.40 -1187.07,502.17 -1241.64,444.68 -1116.94,353.49 -1058.08,349.04 -961.85,336.12 -900.62,318.41 -837.22,294.69 -767.11,258.73 -669.31,185.55 -544.57,45.16 -491.56,-32.65 -322.33,-190.82 33.55,-414.57 224.30,-536.82 433.39,-665.50 592.58,-768.83 705.67,-831.21 965.98,-902.54 1272.75,-1098.31 1347.40,-1172.92 1336.08,-1189.93 1226.34,-1123.29 1134.47,-1071.05 1047.09,-1012.32 963.67,-1138.98 1136.57,-1254.43 1257.45,-1334.88 1250.55,-1340.75 1236.64,-1352.56 1178.15,-1402.23 1119.97,-1455.46 1078.44,-1517.71 1114.74,-1532.69 1444.61,-1668.84 1699.80,-1776.45 1858.31,-1853.96 2056.66,-1966.55 2371.78,-2144.85 2561.83,-2237.85 2750.47,-2331.84 2815.85,-2364.41 3000.50,-2410.12 3058.74,-2429.02 3082.23,-2432.76 3135.01,-2434.84 3195.79,-2438.82 3304.28,-2451.50 3418.36,-2464.82 3496.94,-2472.44 3603.06,-2482.45 3657.62,-2487.50 3760.81,-2497.09 3971.81,-2509.37 4102.87,-2514.80 4317.11,-2527.40 4409.61,-2527.48 4688.49,-2549.10 4774.49,-2532.09 4920.90,-2509.42"/>
    <poly id="369763305" type="landuse" color="194,194,130" fill="1" layer="-3.00" shape="503.79,613.35 498.42,616.38 491.24,623.06 487.60,627.30 488.80,631.78 492.71,635.93 500.77,634.63 510.34,628.36 517.72,624.90 521.44,622.95 521.45,618.90 519.71,616.13 514.40,613.64 508.90,612.47 503.79,613.35"/>
    <poly id="369763306" type="landuse" color="194,194,130" fill="1" layer="-3.00" shape="480.30,622.32 481.21,624.64 480.84,629.26 482.02,634.80 484.43,639.70 488.73,643.42 492.73,645.87 525.16,626.45 531.07,621.45 533.17,615.84 531.92,611.61 529.31,606.86 526.79,605.53 518.14,603.35 509.63,599.71 501.53,594.90 494.53,589.93 490.13,586.01 488.38,585.47 486.51,585.91 485.48,587.74 485.65,592.32 485.58,598.86 484.91,605.38 483.68,611.10 482.16,616.72 480.30,622.32"/>
    <poly id="369763307" type="landuse" color="194,194,130" fill="1" layer="-3.00" shape="387.41,270.71 396.30,264.96 399.69,268.86 406.81,281.73 421.25,308.80 415.66,311.74 419.55,319.10 425.04,316.22 432.15,330.43 436.41,340.57 440.40,351.39 447.36,373.33 448.31,376.68 446.82,377.07 448.74,384.32 450.01,383.99 454.74,404.97 456.98,413.78 459.40,419.67 456.40,420.72 451.54,412.30 446.16,401.23 442.21,395.47 433.17,386.07 426.41,378.47 421.36,370.13 417.27,361.74 414.39,352.58 412.67,343.67 411.68,336.72 411.40,328.99 409.51,319.49 406.24,309.74 401.89,300.55 394.51,287.28 387.55,276.86 387.41,270.71"/>
    <poly id="369763311" type="landuse" color="194,194,130" fill="1" layer="-3.00" shape="600.11,586.43 604.32,588.02 608.49,586.39 607.64,582.77 580.46,530.23 572.94,505.60 557.51,475.05 551.92,478.11 547.86,470.75 553.76,467.52 537.75,435.21 534.53,431.93 530.76,430.18 526.31,430.50 491.64,435.37 488.63,435.47 481.78,435.56 481.32,436.81 473.93,434.08 474.23,433.28 470.57,430.86 466.79,427.95 463.75,424.93 461.31,428.78 464.10,430.71 467.88,439.51 469.32,447.41 469.86,453.35 474.09,458.02 480.45,461.02 487.73,462.74 495.15,462.53 501.56,460.96 505.90,459.16 513.97,457.58 520.62,457.07 528.14,458.10 534.09,460.95 538.63,464.59 542.27,470.82 544.97,475.86 548.58,480.45 553.05,484.29 558.18,488.98 562.04,494.80 564.22,500.93 565.15,509.99 565.63,517.94 566.73,528.80 567.85,538.34 571.15,549.75 575.33,558.89 580.45,566.48 586.43,573.19 590.81,577.52 592.07,577.42 596.83,582.93 596.60,584.09 598.60,586.29 600.11,586.43"/>
    <poly id="369763314" type="building" color="255,230,230" fill="1" layer="-1.00" shape="568.61,606.61 573.74,616.60 583.76,611.39 578.71,601.71 568.61,606.61"/>
    <poly id="369763317" type="landuse" color="194,194,130" fill="1" layer="-3.00" shape="419.41,484.22 419.60,482.08 424.05,476.13 428.33,468.73 431.14,462.11 433.78,454.18 435.04,446.08 436.52,442.26 440.21,438.98 445.71,437.95 452.37,439.92 456.76,443.56 459.93,449.51 462.85,453.86 468.51,459.81 474.76,464.04 481.82,466.72 489.82,467.83 497.03,467.20 504.29,465.18 511.67,463.32 520.08,462.03 527.45,463.33 533.51,467.00 537.33,471.80 540.54,478.31 544.22,483.09 549.70,488.07 554.90,492.41 557.87,497.87 559.65,503.79 560.51,515.54 561.76,530.74 563.73,542.45 566.86,552.12 571.40,561.28 576.58,569.00 581.88,575.22 586.34,579.48 587.51,582.13 587.12,585.30 583.80,589.07 576.37,594.93 571.38,597.69 568.90,597.15 567.29,595.45 562.81,587.19 551.55,581.02 549.41,578.39 549.11,576.74 547.50,572.93 544.71,569.55 541.45,567.42 537.31,566.18 533.42,566.29 528.87,567.57 524.59,570.54 520.60,574.51 519.58,580.29 520.90,588.26 522.55,590.75 522.08,593.47 519.66,595.89 516.61,596.28 512.64,594.60 505.71,589.65 498.80,583.94 492.68,577.43 486.46,569.13 481.37,558.16 478.12,547.73 477.78,539.78 479.20,533.21 481.30,526.99 485.85,520.35 490.38,516.54 496.03,514.62 501.58,514.36 507.35,515.89 512.38,519.06 515.87,523.09 517.68,528.03 517.99,534.39 516.55,539.45 513.98,544.56 509.68,547.76 503.97,549.05 498.59,548.15 493.84,544.71 490.93,539.66 490.85,534.69 491.85,530.99 494.38,527.34 497.25,526.04 500.51,525.44 502.99,526.06 504.55,527.33 502.79,528.53 499.85,529.62 497.31,531.42 495.93,533.86 495.86,536.41 496.70,538.92 498.79,540.56 501.27,541.46 504.30,541.68 506.82,540.71 509.42,538.99 511.31,535.80 511.62,532.21 510.96,528.41 508.40,525.44 504.88,522.86 500.89,521.92 496.37,522.57 491.81,524.86 488.66,528.91 487.07,533.90 487.52,540.40 490.15,545.71 494.21,549.20 499.32,551.68 504.37,552.09 509.51,551.20 514.22,548.70 517.36,545.06 519.64,540.16 520.98,534.06 520.67,527.63 518.69,521.30 514.40,516.22 508.75,512.69 502.23,510.65 494.55,510.65 488.74,512.84 484.43,516.24 480.29,520.82 477.16,526.67 475.70,532.01 474.40,536.66 471.63,539.21 467.46,540.13 463.12,538.91 456.38,535.07 449.69,528.97 443.99,522.47 440.66,514.85 439.11,508.12 435.43,500.79 431.25,494.19 425.58,488.80 419.41,484.22"/>
    <poly id="369763319" type="landuse" color="194,194,130" fill="1" layer="-3.00" shape="412.16,481.05 400.01,474.17 407.08,468.91 411.63,464.49 415.08,459.83 417.86,454.44 420.81,447.29 422.94,445.28 425.86,444.80 427.91,445.89 428.54,448.25 427.42,453.88 424.93,461.26 422.06,468.01 417.44,475.06 413.56,480.27 412.16,481.05"/>
    <poly id="369763322" type="landuse" color="194,194,130" fill="1" layer="-3.00" shape="422.34,570.02 456.07,602.44 478.51,619.43 480.10,614.98 481.42,604.09 481.82,596.69 481.97,589.54 480.87,582.89 479.11,576.61 476.68,571.10 470.07,562.14 464.80,557.91 458.71,555.21 450.61,554.30 443.85,554.61 438.22,556.31 431.96,559.75 426.75,564.39 422.34,570.02"/>
    <poly id="369763323" type="landuse" color="194,194,130" fill="1" layer="-3.00" shape="437.97,527.33 437.07,528.18 437.52,536.79 436.24,544.17 436.84,547.40 439.52,549.91 443.53,549.72 449.32,549.20 455.38,549.65 461.31,551.28 464.42,551.94 466.21,550.92 466.67,548.40 465.65,546.42 459.06,543.90 452.13,539.72 446.29,534.88 441.72,529.98 440.32,527.49 437.97,527.33"/>
    <poly id="369763324" type="landuse" color="194,194,130" fill="1" layer="-3.00" shape="325.65,486.47 325.73,488.61 327.55,490.59 336.55,495.73 346.81,499.87 356.86,502.00 365.77,502.51 373.76,501.83 382.03,500.26 392.03,496.67 399.54,492.53 405.75,488.28 409.18,484.30 395.88,476.92 386.06,481.89 377.80,485.25 370.05,487.46 362.40,489.12 354.35,490.07 346.86,490.28 339.01,488.97 332.98,486.74 328.39,484.81 325.65,486.47"/>
    <poly id="369763325" type="landuse" color="194,194,130" fill="1" layer="-3.00" shape="281.58,498.80 283.33,505.48 287.07,510.68 291.70,513.41 303.20,513.18 323.28,512.62 360.38,528.10 392.99,545.66 417.24,565.22 423.31,560.83 427.29,556.93 430.14,549.01 431.76,539.95 432.40,526.73 432.17,514.71 429.30,503.19 424.92,496.04 419.09,491.33 414.20,488.02 407.10,494.59 399.08,499.48 389.83,503.78 382.43,505.93 373.38,507.90 362.57,508.56 351.67,507.17 341.92,504.28 331.93,500.01 323.33,495.51 318.34,490.69 305.66,493.79 290.51,496.14 281.58,498.80"/>
    <poly id="369763326" type="landuse" color="194,194,130" fill="1" layer="-3.00" shape="329.18,476.08 328.90,473.97 329.05,470.73 330.47,467.09 333.56,462.40 338.05,457.70 342.87,453.55 346.96,450.77 353.29,447.00 360.30,443.47 367.57,440.70 374.56,438.47 382.15,436.81 390.96,435.95 397.33,435.98 403.46,436.91 408.54,438.49 411.73,440.85 413.55,442.76 414.53,445.64 412.80,444.06 408.52,443.36 402.50,443.58 394.46,444.21 383.54,445.77 372.62,448.99 358.57,454.72 349.98,458.72 342.70,463.25 337.74,467.09 333.97,470.76 330.47,474.38 329.18,476.08"/>
    <poly id="369763327" type="landuse" color="194,194,130" fill="1" layer="-3.00" shape="343.82,448.39 328.45,439.96 318.63,434.03 310.97,427.20 302.42,417.60 295.09,406.48 288.78,393.64 283.84,381.01 280.07,368.04 278.18,358.43 274.45,351.31 269.70,345.91 263.39,340.47 255.87,336.37 247.68,334.98 239.46,334.76 232.97,335.95 226.45,338.51 220.89,341.09 224.11,359.90 231.68,369.28 269.97,452.43 271.10,461.43 274.43,468.55 274.65,475.19 280.70,493.02 291.06,490.85 300.89,489.16 306.40,488.13 313.49,486.57 319.07,482.92 322.53,477.94 324.85,471.57 326.15,467.11 329.83,461.36 335.59,454.79 343.82,448.39"/>
    <poly id="369763328" type="landuse" color="194,194,130" fill="1" layer="-3.00" shape="348.66,445.43 358.09,440.28 366.31,436.88 373.62,434.55 381.88,432.81 390.42,432.06 397.28,431.96 405.36,433.44 411.79,434.60 419.11,435.38 426.97,434.52 432.69,432.81 438.28,428.87 441.63,424.18 443.24,419.06 444.26,413.82 443.33,408.32 440.94,402.51 437.36,397.44 431.82,392.31 426.21,386.02 420.36,378.06 415.85,370.82 412.07,362.62 409.64,354.46 407.75,344.85 406.79,336.63 406.40,329.20 404.40,320.18 401.60,311.43 397.43,302.72 389.95,289.45 384.58,281.70 378.77,275.79 369.03,270.46 357.72,268.32 341.05,269.81 331.61,271.70 323.30,274.59 315.56,278.48 308.20,282.77 300.20,289.19 293.78,295.06 290.73,299.27 287.03,305.61 284.50,312.75 282.73,319.93 281.76,326.93 281.60,333.16 282.47,344.50 284.30,356.35 286.77,368.47 290.49,380.80 295.27,392.45 301.02,404.11 307.61,414.04 316.55,423.84 325.55,431.30 333.62,436.78 348.66,445.43"/>
    <poly id="372937888" type="building" color="255,230,230" fill="1" layer="-1.00" shape="929.19,546.78 941.43,541.18 926.80,510.12 914.46,515.90 929.19,546.78"/>
    <poly id="372937889" type="building" color="255,230,230" fill="1" layer="-1.00" shape="942.21,571.74 933.48,561.69 959.27,539.45 967.99,549.51 942.21,571.74"/>
    <poly id="372937890" type="building" color="255,230,230" fill="1" layer="-1.00" shape="963.10,530.62 974.90,523.34 956.99,494.46 945.18,501.73 963.10,530.62"/>