<?xml version="1.0" encoding="UTF-8"?>

<!-- generated on 05/31/17 15:22:42 by SUMO netconvert Version 0.30.0
<?xml version="1.0" encoding="UTF-8"?>

<configuration xmlns:xsi="http://www.w3.org/2001/XMLSchema-instance" xsi:noNamespaceSchemaLocation="http://sumo.dlr.de/xsd/netconvertConfiguration.xsd">

    <input>
        <osm-files value="map.osm"/>
    </input>

    <output>
        <output-file value="map.net.xml"/>
    </output>

    <projection>
        <proj.utm value="true"/>
    </projection>

</configuration>
-->

<net version="0.27" xmlns:xsi="http://www.w3.org/2001/XMLSchema-instance" xsi:noNamespaceSchemaLocation="http://sumo.dlr.de/xsd/net_file.xsd">

    <location netOffset="-678753.51,-4850879.89" convBoundary="0.00,0.00,1330.08,1388.86" origBoundary="11.222086,43.789241,11.267355,43.833128" projParameter="+proj=utm +zone=32 +ellps=WGS84 +datum=WGS84 +units=m +no_defs"/>

    <type id="highway.bridleway" priority="1" numLanes="1" speed="2.78" allow="pedestrian" oneway="1" width="2.00"/>
    <type id="highway.bus_guideway" priority="1" numLanes="1" speed="8.33" allow="bus" oneway="1"/>
    <type id="highway.cycleway" priority="1" numLanes="1" speed="5.56" allow="bicycle" oneway="0" width="1.00"/>
    <type id="highway.footway" priority="1" numLanes="1" speed="2.78" allow="pedestrian" oneway="1" width="2.00"/>
    <type id="highway.ford" priority="1" numLanes="1" speed="2.78" allow="army" oneway="0"/>
    <type id="highway.living_street" priority="3" numLanes="1" speed="2.78" disallow="tram rail_urban rail rail_electric ship" oneway="0"/>
    <type id="highway.motorway" priority="13" numLanes="2" speed="44.44" allow="private emergency authority army vip passenger hov taxi bus coach delivery truck trailer motorcycle evehicle custom1 custom2" oneway="1"/>
    <type id="highway.motorway_link" priority="12" numLanes="1" speed="22.22" allow="private emergency authority army vip passenger hov taxi bus coach delivery truck trailer motorcycle evehicle custom1 custom2" oneway="1"/>
    <type id="highway.path" priority="1" numLanes="1" speed="2.78" allow="bicycle pedestrian" oneway="1" width="2.00"/>
    <type id="highway.pedestrian" priority="1" numLanes="1" speed="2.78" allow="pedestrian" oneway="1" width="2.00"/>
    <type id="highway.primary" priority="9" numLanes="2" speed="27.78" disallow="tram rail_urban rail rail_electric ship" oneway="0"/>
    <type id="highway.primary_link" priority="8" numLanes="1" speed="22.22" disallow="tram rail_urban rail rail_electric ship" oneway="0"/>
    <type id="highway.raceway" priority="14" numLanes="2" speed="83.33" allow="vip" oneway="0"/>
    <type id="highway.residential" priority="4" numLanes="1" speed="13.89" disallow="tram rail_urban rail rail_electric ship" oneway="0"/>
    <type id="highway.secondary" priority="7" numLanes="2" speed="27.78" disallow="tram rail_urban rail rail_electric ship" oneway="0"/>
    <type id="highway.secondary_link" priority="6" numLanes="1" speed="22.22" disallow="tram rail_urban rail rail_electric ship" oneway="0"/>
    <type id="highway.service" priority="2" numLanes="1" speed="5.56" allow="delivery bicycle pedestrian" oneway="0"/>
    <type id="highway.services" priority="1" numLanes="1" speed="8.33" disallow="tram rail_urban rail rail_electric ship" oneway="0"/>
    <type id="highway.stairs" priority="1" numLanes="1" speed="1.39" allow="pedestrian" oneway="1" width="2.00"/>
    <type id="highway.step" priority="1" numLanes="1" speed="1.39" allow="pedestrian" oneway="1" width="2.00"/>
    <type id="highway.steps" priority="1" numLanes="1" speed="1.39" allow="pedestrian" oneway="1" width="2.00"/>
    <type id="highway.tertiary" priority="6" numLanes="1" speed="22.22" disallow="tram rail_urban rail rail_electric ship" oneway="0"/>
    <type id="highway.tertiary_link" priority="5" numLanes="1" speed="22.22" disallow="tram rail_urban rail rail_electric ship" oneway="0"/>
    <type id="highway.track" priority="1" numLanes="1" speed="5.56" disallow="tram rail_urban rail rail_electric ship" oneway="0"/>
    <type id="highway.trunk" priority="11" numLanes="2" speed="27.78" disallow="tram rail_urban rail rail_electric bicycle pedestrian ship" oneway="0"/>
    <type id="highway.trunk_link" priority="10" numLanes="1" speed="22.22" disallow="tram rail_urban rail rail_electric bicycle pedestrian ship" oneway="0"/>
    <type id="highway.unclassified" priority="5" numLanes="1" speed="13.89" disallow="tram rail_urban rail rail_electric ship" oneway="0"/>
    <type id="highway.unsurfaced" priority="1" numLanes="1" speed="8.33" disallow="tram rail_urban rail rail_electric ship" oneway="0"/>
    <type id="railway.light_rail" priority="15" numLanes="1" speed="27.78" allow="rail_urban" oneway="1"/>
    <type id="railway.preserved" priority="15" numLanes="1" speed="27.78" allow="rail" oneway="1"/>
    <type id="railway.rail" priority="15" numLanes="1" speed="83.33" allow="rail rail_electric" oneway="1"/>
    <type id="railway.subway" priority="15" numLanes="1" speed="27.78" allow="rail_urban" oneway="1"/>
    <type id="railway.tram" priority="15" numLanes="1" speed="13.89" allow="tram" oneway="1"/>

    <edge id=":1064213931_0" function="internal">
        <lane id=":1064213931_0_0" index="0" allow="bicycle" speed="5.56" length="9.60" width="1.00" shape="842.56,507.73 838.22,499.17"/>
    </edge>
    <edge id=":1064213931_1" function="internal">
        <lane id=":1064213931_1_0" index="0" disallow="tram rail_urban rail rail_electric ship" speed="16.67" length="4.14" shape="842.56,507.73 842.04,506.47 841.91,505.43 842.17,504.61 842.80,504.02"/>
    </edge>
    <edge id=":1064213931_2" function="internal">
        <lane id=":1064213931_2_0" index="0" allow="bicycle" speed="5.56" length="1.61" width="1.00" shape="842.56,507.73 842.61,507.24 842.79,506.99 843.10,506.99 843.53,507.23"/>
    </edge>
    <edge id=":1064213931_3" function="internal">
        <lane id=":1064213931_3_0" index="0" disallow="tram rail_urban rail rail_electric ship" speed="16.67" length="3.40" shape="839.20,498.68 839.57,499.51 840.02,500.44 840.54,501.11 841.14,501.16"/>
    </edge>
    <edge id=":1064213931_4" function="internal">
        <lane id=":1064213931_4_0" index="0" allow="bicycle" speed="5.56" length="9.59" width="1.00" shape="839.20,498.68 843.53,507.23"/>
    </edge>
    <edge id=":1064213931_5" function="internal">
        <lane id=":1064213931_5_0" index="0" allow="bicycle" speed="5.56" length="1.61" width="1.00" shape="839.20,498.68 839.14,499.17 838.96,499.41 838.65,499.41 838.22,499.17"/>
    </edge>
    <edge id=":1064213931_6" function="internal">
        <lane id=":1064213931_6_0" index="0" allow="bicycle" speed="16.67" length="4.34" width="1.00" shape="837.79,503.01 838.51,502.40 838.82,501.55 838.73,500.48 838.22,499.17"/>
    </edge>
    <edge id=":1064213931_7" function="internal">
        <lane id=":1064213931_7_0" index="0" disallow="tram rail_urban rail rail_electric ship" speed="27.78" length="3.89" shape="837.79,503.01 841.14,501.16"/>
        <lane id=":1064213931_7_1" index="1" disallow="tram rail_urban rail rail_electric ship" speed="27.78" length="3.89" shape="839.35,505.92 842.80,504.02"/>
    </edge>
    <edge id=":1064213931_9" function="internal">
        <lane id=":1064213931_9_0" index="0" allow="bicycle" speed="16.67" length="5.02" width="1.00" shape="839.35,505.92 840.64,505.45 841.77,505.51 842.74,506.10 843.53,507.23"/>
    </edge>
    <edge id=":1064213936_0" function="internal">
        <lane id=":1064213936_0_0" index="0" disallow="tram rail_urban rail rail_electric ship" speed="13.89" length="4.81" shape="660.99,653.99 659.76,655.08 658.99,656.11 658.69,657.05 658.86,657.93"/>
    </edge>
    <edge id=":1064213936_1" function="internal">
        <lane id=":1064213936_1_0" index="0" allow="bicycle" speed="5.56" length="6.35" width="1.00" shape="660.99,653.99 659.50,655.14 658.44,655.89 657.30,656.49 655.56,657.19"/>
    </edge>
    <edge id=":1064213936_2" function="internal">
        <lane id=":1064213936_2_0" index="0" allow="bicycle" speed="5.56" length="1.61" width="1.00" shape="660.99,653.99 660.50,654.04 660.21,653.92 660.14,653.62 660.28,653.14"/>
    </edge>
    <edge id=":1064213936_3" function="internal">
        <lane id=":1064213936_3_0" index="0" allow="bicycle" speed="13.89" length="4.34" width="1.00" shape="656.87,652.66 657.37,653.64 658.11,654.04 659.08,653.88 660.28,653.14"/>
    </edge>
    <edge id=":1064213936_4" function="internal">
        <lane id=":1064213936_4_0" index="0" disallow="tram rail_urban rail rail_electric ship" speed="22.22" length="5.64" shape="656.87,652.66 657.36,654.26 657.71,655.35 658.15,656.41 658.86,657.93"/>
    </edge>
    <edge id=":1064213936_5" function="internal">
        <lane id=":1064213936_5_0" index="0" allow="bicycle" speed="13.89" length="5.26" width="1.00" shape="656.87,652.66 657.20,654.30 657.09,655.60 656.55,656.57 655.56,657.19"/>
    </edge>
    <edge id=":1064213936_6" function="internal">
        <lane id=":1064213936_6_0" index="0" allow="bicycle" speed="5.56" length="6.26" width="1.00" shape="654.90,656.26 656.62,655.58 657.76,655.00 658.81,654.28 660.28,653.14"/>
    </edge>
    <edge id=":1064213936_7" function="internal">
        <lane id=":1064213936_7_0" index="0" disallow="tram rail_urban rail rail_electric ship" speed="13.89" length="4.81" shape="654.90,656.26 656.15,655.99 657.23,656.17 658.13,656.82 658.86,657.93"/>
    </edge>
    <edge id=":1064213936_8" function="internal">
        <lane id=":1064213936_8_0" index="0" allow="bicycle" speed="5.56" length="1.66" width="1.00" shape="654.90,656.26 655.41,656.25 655.69,656.40 655.74,656.71 655.56,657.19"/>
    </edge>
    <edge id=":1064213941_0" function="internal">
        <lane id=":1064213941_0_0" index="0" allow="bicycle" speed="5.56" length="6.26" width="1.00" shape="731.44,751.00 730.38,749.48 729.62,748.46 728.81,747.47 727.60,746.07"/>
    </edge>
    <edge id=":1064213941_1" function="internal">
        <lane id=":1064213941_1_0" index="0" disallow="tram rail_urban rail rail_electric ship" speed="9.73" length="5.01" shape="731.44,751.00 730.82,749.77 730.73,748.63 731.17,747.59 732.15,746.64"/>
    </edge>
    <edge id=":1064213941_2" function="internal">
        <lane id=":1064213941_2_0" index="0" allow="bicycle" speed="5.56" length="1.61" width="1.00" shape="731.44,751.00 731.43,750.50 731.58,750.23 731.88,750.19 732.34,750.37"/>
    </edge>
    <edge id=":1064213941_3" function="internal">
        <lane id=":1064213941_3_0" index="0" disallow="tram rail_urban rail rail_electric ship" speed="9.73" length="4.35" shape="728.43,745.35 729.46,746.35 730.42,746.89 731.32,746.99 732.15,746.64"/>
    </edge>
    <edge id=":1064213941_4" function="internal">
        <lane id=":1064213941_4_0" index="0" allow="bicycle" speed="5.56" length="6.37" width="1.00" shape="728.43,745.35 729.67,746.78 730.49,747.78 731.26,748.82 732.34,750.37"/>
    </edge>
    <edge id=":1064213941_5" function="internal">
        <lane id=":1064213941_5_0" index="0" allow="bicycle" speed="5.56" length="1.61" width="1.00" shape="728.43,745.35 728.49,745.84 728.38,746.12 728.08,746.20 727.60,746.07"/>
    </edge>
    <edge id=":1064213941_6" function="internal">
        <lane id=":1064213941_6_0" index="0" allow="bicycle" speed="9.73" length="4.19" width="1.00" shape="727.94,749.71 728.57,749.00 728.72,748.17 728.40,747.19 727.60,746.07"/>
    </edge>
    <edge id=":1064213941_7" function="internal">
        <lane id=":1064213941_7_0" index="0" disallow="tram rail_urban rail rail_electric ship" speed="13.89" length="5.21" shape="727.94,749.71 732.15,746.64"/>
    </edge>
    <edge id=":1064213941_8" function="internal">
        <lane id=":1064213941_8_0" index="0" allow="bicycle" speed="9.73" length="5.11" width="1.00" shape="727.94,749.71 729.20,749.03 730.35,748.91 731.40,749.36 732.34,750.37"/>
    </edge>
    <edge id=":1064213945_0" function="internal">
        <lane id=":1064213945_0_0" index="0" disallow="tram rail_urban rail rail_electric ship" speed="13.89" length="4.20" shape="695.64,733.93 694.39,734.50 693.62,735.18 693.33,735.99 693.52,736.91"/>
    </edge>
    <edge id=":1064213945_1" function="internal">
        <lane id=":1064213945_1_0" index="0" allow="bicycle" speed="5.56" length="6.15" width="1.00" shape="695.64,733.93 689.88,736.08"/>
    </edge>
    <edge id=":1064213945_2" function="internal">
        <lane id=":1064213945_2_0" index="0" allow="bicycle" speed="5.56" length="1.61" width="1.00" shape="695.64,733.93 695.16,733.80 694.94,733.59 694.98,733.28 695.28,732.89"/>
    </edge>
    <edge id=":1064213945_3" function="internal">
        <lane id=":1064213945_3_0" index="0" allow="bicycle" speed="13.89" length="4.39" width="1.00" shape="691.40,732.07 691.95,732.82 692.78,733.21 693.89,733.23 695.28,732.89"/>
    </edge>
    <edge id=":1064213945_4" function="internal">
        <lane id=":1064213945_4_0" index="0" disallow="tram rail_urban rail rail_electric ship" speed="22.22" length="5.28" shape="691.40,732.07 693.52,736.91"/>
    </edge>
    <edge id=":1064213945_5" function="internal">
        <lane id=":1064213945_5_0" index="0" allow="bicycle" speed="13.89" length="4.92" width="1.00" shape="691.40,732.07 691.78,733.40 691.65,734.51 691.01,735.41 689.88,736.08"/>
    </edge>
    <edge id=":1064213945_6" function="internal">
        <lane id=":1064213945_6_0" index="0" allow="bicycle" speed="5.56" length="5.92" width="1.00" shape="689.74,734.95 695.28,732.89"/>
    </edge>
    <edge id=":1064213945_7" function="internal">
        <lane id=":1064213945_7_0" index="0" disallow="tram rail_urban rail rail_electric ship" speed="13.89" length="4.82" shape="689.74,734.95 690.90,734.69 691.92,734.93 692.80,735.67 693.52,736.91"/>
    </edge>
    <edge id=":1064213945_8" function="internal">
        <lane id=":1064213945_8_0" index="0" allow="bicycle" speed="5.56" length="1.66" width="1.00" shape="689.74,734.95 690.20,735.18 690.37,735.45 690.27,735.75 689.88,736.08"/>
    </edge>
    <edge id=":1064213946_0" function="internal">
        <lane id=":1064213946_0_0" index="0" disallow="tram rail_urban rail rail_electric ship" speed="9.72" length="4.19" shape="850.52,523.29 849.79,522.14 849.01,521.46 848.17,521.23 847.28,521.46"/>
    </edge>
    <edge id=":1064213946_1" function="internal">
        <lane id=":1064213946_1_0" index="0" allow="bicycle" speed="5.56" length="16.16" width="1.00" shape="850.52,523.29 843.16,508.91"/>
    </edge>
    <edge id=":1064213946_2" function="internal">
        <lane id=":1064213946_2_0" index="0" disallow="tram rail_urban rail rail_electric ship" speed="9.72" length="10.80" shape="850.52,523.29 848.75,519.44 847.83,516.48 847.77,514.43 848.56,513.27"/>
    </edge>
    <edge id=":1064213946_3" function="internal">
        <lane id=":1064213946_3_0" index="0" allow="bicycle" speed="5.56" length="1.61" width="1.00" shape="850.52,523.29 850.58,522.80 850.76,522.55 851.07,522.55 851.50,522.79"/>
    </edge>
    <edge id=":1064213946_4" function="internal">
        <lane id=":1064213946_4_0" index="0" allow="bicycle" speed="9.72" length="4.28" width="1.00" shape="851.87,518.97 851.18,519.60 850.88,520.45 850.99,521.51 851.50,522.79"/>
    </edge>
    <edge id=":1064213946_5" function="internal">
        <lane id=":1064213946_5_0" index="0" disallow="tram rail_urban rail rail_electric ship" speed="13.89" length="5.12" shape="851.87,518.97 847.28,521.46"/>
        <lane id=":1064213946_5_1" index="1" disallow="tram rail_urban rail rail_electric ship" speed="13.89" length="5.12" shape="850.21,516.12 845.79,518.52"/>
    </edge>
    <edge id=":1064213946_7" function="internal">
        <lane id=":1064213946_7_0" index="0" allow="bicycle" speed="9.72" length="2.67" width="1.00" shape="850.21,516.12 848.80,516.23 847.78,515.51"/>
    </edge>
    <edge id=":1064213946_8" function="internal">
        <lane id=":1064213946_8_0" index="0" disallow="tram rail_urban rail rail_electric ship" speed="13.89" length="2.52" shape="850.21,516.12 848.73,516.03 847.96,515.52 847.95,515.41"/>
    </edge>
    <edge id=":1064213946_18" function="internal">
        <lane id=":1064213946_18_0" index="0" speed="9.72" length="8.12" width="1.00" shape="847.78,515.51 847.16,515.07 845.27,512.63 843.16,508.91"/>
    </edge>
    <edge id=":1064213946_19" function="internal">
        <lane id=":1064213946_19_0" index="0" speed="13.89" length="2.30" shape="847.95,515.41 847.90,514.60 848.56,513.27"/>
    </edge>
    <edge id=":1064213946_9" function="internal">
        <lane id=":1064213946_9_0" index="0" disallow="tram rail_urban rail rail_electric ship" speed="9.72" length="3.80" shape="844.14,508.41 844.84,509.58 845.54,510.30 846.22,510.58 846.90,510.41"/>
    </edge>
    <edge id=":1064213946_10" function="internal">
        <lane id=":1064213946_10_0" index="0" allow="bicycle" speed="5.56" length="16.16" width="1.00" shape="844.14,508.41 851.50,522.79"/>
    </edge>
    <edge id=":1064213946_11" function="internal">
        <lane id=":1064213946_11_0" index="0" disallow="tram rail_urban rail rail_electric ship" speed="9.72" length="10.96" shape="844.14,508.41 845.91,512.30 846.78,515.28 846.74,517.35 845.79,518.52"/>
    </edge>
    <edge id=":1064213946_12" function="internal">
        <lane id=":1064213946_12_0" index="0" allow="bicycle" speed="5.56" length="1.61" width="1.00" shape="844.14,508.41 844.08,508.90 843.90,509.15 843.59,509.15 843.16,508.91"/>
    </edge>
    <edge id=":1064213946_13" function="internal">
        <lane id=":1064213946_13_0" index="0" allow="bicycle" speed="9.72" length="4.21" width="1.00" shape="842.81,512.63 843.50,512.06 843.79,511.24 843.68,510.19 843.16,508.91"/>
    </edge>
    <edge id=":1064213946_14" function="internal">
        <lane id=":1064213946_14_0" index="0" disallow="tram rail_urban rail rail_electric ship" speed="13.89" length="4.74" shape="842.81,512.63 846.90,510.41"/>
        <lane id=":1064213946_14_1" index="1" disallow="tram rail_urban rail rail_electric ship" speed="13.89" length="4.74" shape="844.30,515.57 848.56,513.27"/>
    </edge>
    <edge id=":1064213946_16" function="internal">
        <lane id=":1064213946_16_0" index="0" allow="bicycle" speed="9.72" length="2.68" width="1.00" shape="844.30,515.57 845.80,515.49 846.77,516.17"/>
    </edge>
    <edge id=":1064213946_17" function="internal">
        <lane id=":1064213946_17_0" index="0" disallow="tram rail_urban rail rail_electric ship" speed="13.89" length="2.41" shape="844.30,515.57 845.78,515.75 846.52,516.30"/>
    </edge>
    <edge id=":1064213946_20" function="internal">
        <lane id=":1064213946_20_0" index="0" speed="9.72" length="8.22" width="1.00" shape="846.77,516.17 847.49,516.67 849.39,519.10 851.50,522.79"/>
    </edge>
    <edge id=":1064213946_21" function="internal">
        <lane id=":1064213946_21_0" index="0" speed="13.89" length="2.41" shape="846.52,516.30 846.52,517.22 845.79,518.52"/>
    </edge>
    <edge id=":1064213948_0" function="internal">
        <lane id=":1064213948_0_0" index="0" disallow="tram rail_urban rail rail_electric ship" speed="9.73" length="4.28" shape="664.69,631.69 664.52,630.34 664.05,629.47 663.29,629.07 662.22,629.14"/>
    </edge>
    <edge id=":1064213948_1" function="internal">
        <lane id=":1064213948_1_0" index="0" allow="bicycle" speed="5.56" length="6.54" width="1.00" shape="664.69,631.69 664.58,629.77 664.31,628.47 663.92,627.19 663.42,625.31"/>
    </edge>
    <edge id=":1064213948_2" function="internal">
        <lane id=":1064213948_2_0" index="0" allow="bicycle" speed="5.56" length="1.64" width="1.00" shape="664.69,631.69 664.87,631.22 665.11,631.02 665.42,631.09 665.79,631.44"/>
    </edge>
    <edge id=":1064213948_3" function="internal">
        <lane id=":1064213948_3_0" index="0" allow="bicycle" speed="9.73" length="4.78" width="1.00" shape="667.38,627.16 666.66,627.74 666.16,628.64 665.87,629.88 665.79,631.44"/>
    </edge>
    <edge id=":1064213948_4" function="internal">
        <lane id=":1064213948_4_0" index="0" disallow="tram rail_urban rail rail_electric ship" speed="13.89" length="5.54" shape="667.38,627.16 665.91,627.90 664.88,628.36 663.81,628.72 662.22,629.14"/>
    </edge>
    <edge id=":1064213948_5" function="internal">
        <lane id=":1064213948_5_0" index="0" allow="bicycle" speed="9.73" length="5.32" width="1.00" shape="667.38,627.16 665.94,627.65 664.81,627.50 663.96,626.72 663.42,625.31"/>
    </edge>
    <edge id=":1064213948_6" function="internal">
        <lane id=":1064213948_6_0" index="0" allow="bicycle" speed="5.56" length="6.53" width="1.00" shape="664.49,625.06 665.00,626.94 665.40,628.22 665.67,629.51 665.79,631.44"/>
    </edge>
    <edge id=":1064213948_7" function="internal">
        <lane id=":1064213948_7_0" index="0" disallow="tram rail_urban rail rail_electric ship" speed="9.73" length="5.29" shape="664.49,625.06 664.63,626.56 664.31,627.74 663.50,628.60 662.22,629.14"/>
    </edge>
    <edge id=":1064213948_8" function="internal">
        <lane id=":1064213948_8_0" index="0" allow="bicycle" speed="5.56" length="1.61" width="1.00" shape="664.49,625.06 664.31,625.53 664.08,625.72 663.78,625.65 663.42,625.31"/>
    </edge>
    <edge id=":1064213950_0" function="internal">
        <lane id=":1064213950_0_0" index="0" disallow="tram rail_urban rail rail_electric ship" speed="13.89" length="2.91" shape="737.86,759.95 737.31,759.50 736.70,759.36 736.03,759.53 735.30,760.02"/>
    </edge>
    <edge id=":1064213950_1" function="internal">
        <lane id=":1064213950_1_0" index="0" allow="bicycle" speed="5.56" length="4.76" width="1.00" shape="737.86,759.95 736.96,758.87 736.37,758.10 735.82,757.30 735.02,756.14"/>
    </edge>
    <edge id=":1064213950_2" function="internal">
        <lane id=":1064213950_2_0" index="0" allow="bicycle" speed="5.56" length="1.61" width="1.00" shape="737.86,759.95 737.75,759.47 737.85,759.17 738.14,759.07 738.63,759.17"/>
    </edge>
    <edge id=":1064213950_3" function="internal">
        <lane id=":1064213950_3_0" index="0" allow="bicycle" speed="13.89" length="2.85" width="1.00" shape="739.44,756.82 738.73,757.43 738.37,758.03 738.33,758.61 738.63,759.17"/>
    </edge>
    <edge id=":1064213950_4" function="internal">
        <lane id=":1064213950_4_0" index="0" disallow="tram rail_urban rail rail_electric ship" speed="22.22" length="5.23" shape="739.44,756.82 735.30,760.02"/>
    </edge>
    <edge id=":1064213950_5" function="internal">
        <lane id=":1064213950_5_0" index="0" allow="bicycle" speed="13.89" length="5.11" width="1.00" shape="739.44,756.82 738.17,757.48 737.01,757.59 735.96,757.14 735.02,756.14"/>
    </edge>
    <edge id=":1064213950_6" function="internal">
        <lane id=":1064213950_6_0" index="0" allow="bicycle" speed="5.56" length="4.55" width="1.00" shape="735.92,755.51 736.69,756.63 737.21,757.39 737.77,758.13 738.63,759.17"/>
    </edge>
    <edge id=":1064213950_7" function="internal">
        <lane id=":1064213950_7_0" index="0" disallow="tram rail_urban rail rail_electric ship" speed="13.89" length="5.09" shape="735.92,755.51 736.54,756.74 736.64,757.90 736.23,758.99 735.30,760.02"/>
    </edge>
    <edge id=":1064213950_8" function="internal">
        <lane id=":1064213950_8_0" index="0" allow="bicycle" speed="5.56" length="1.61" width="1.00" shape="735.92,755.51 735.93,756.01 735.78,756.28 735.48,756.32 735.02,756.14"/>
    </edge>
    <edge id=":1064383328_0" function="internal">
        <lane id=":1064383328_0_0" index="0" disallow="tram rail_urban rail rail_electric ship" speed="18.05" length="2.86" shape="750.57,888.66 749.51,886.00"/>
    </edge>
    <edge id=":1064383328_1" function="internal">
        <lane id=":1064383328_1_0" index="0" disallow="tram rail_urban rail rail_electric ship" speed="13.89" length="2.41" shape="750.57,888.66 750.89,887.21 751.51,886.53"/>
    </edge>
    <edge id=":1064383328_4" function="internal">
        <lane id=":1064383328_4_0" index="0" speed="13.89" length="2.41" shape="751.51,886.53 752.43,886.61 753.65,887.47"/>
    </edge>
    <edge id=":1064383328_2" function="internal">
        <lane id=":1064383328_2_0" index="0" disallow="tram rail_urban rail rail_electric ship" speed="18.05" length="3.73" shape="752.47,884.76 756.73,886.28"/>
        <lane id=":1064383328_2_1" index="1" disallow="tram rail_urban rail rail_electric ship" speed="18.05" length="3.73" shape="752.47,884.76 753.65,887.47"/>
    </edge>
    <edge id=":1064393512_0" function="internal">
        <lane id=":1064393512_0_0" index="0" disallow="tram rail_urban rail rail_electric ship" speed="25.00" length="5.09" shape="740.93,870.79 739.79,869.90 738.82,869.55 737.73,869.52 736.21,869.60"/>
    </edge>
    <edge id=":1064393512_1" function="internal">
        <lane id=":1064393512_1_0" index="0" disallow="tram rail_urban rail rail_electric ship" speed="27.78" length="4.66" shape="740.70,866.14 739.45,867.39 738.68,868.48 737.79,869.27 736.21,869.60"/>
        <lane id=":1064393512_1_1" index="1" disallow="tram rail_urban rail rail_electric ship" speed="27.78" length="4.66" shape="738.64,864.02 736.11,866.30"/>
    </edge>
    <edge id=":1064393533_0" function="internal">
        <lane id=":1064393533_0_0" index="0" disallow="tram rail_urban rail rail_electric ship" speed="27.78" length="10.89" shape="734.55,835.15 735.82,837.90 736.63,839.88 737.76,841.59 739.98,843.50"/>
        <lane id=":1064393533_0_1" index="1" disallow="tram rail_urban rail rail_electric ship" speed="27.78" length="10.89" shape="731.64,836.72 733.14,839.85 734.12,842.08 735.47,844.00 738.05,846.18"/>
    </edge>
    <edge id=":1064393533_2" function="internal">
        <lane id=":1064393533_2_0" index="0" disallow="tram rail_urban rail rail_electric ship" speed="27.78" length="11.26" shape="728.98,840.47 732.45,840.39 734.88,840.66 737.11,841.60 739.98,843.50"/>
        <lane id=":1064393533_2_1" index="1" disallow="tram rail_urban rail rail_electric ship" speed="27.78" length="11.26" shape="727.99,843.92 730.28,843.39 732.72,843.59 735.31,844.52 738.05,846.18"/>
    </edge>
    <edge id=":1064393539_0" function="internal">
        <lane id=":1064393539_0_0" index="0" disallow="tram rail_urban rail rail_electric ship" speed="25.00" length="12.39" shape="716.18,852.88 718.76,840.76"/>
    </edge>
    <edge id=":1064393539_1" function="internal">
        <lane id=":1064393539_1_0" index="0" disallow="tram rail_urban rail rail_electric ship" speed="27.78" length="12.40" shape="716.18,852.88 717.02,849.16 718.43,846.17 720.41,843.92 722.95,842.41"/>
        <lane id=":1064393539_1_1" index="1" disallow="tram rail_urban rail rail_electric ship" speed="27.78" length="12.40" shape="719.45,853.33 720.21,850.42 721.62,847.99 723.68,846.04 726.39,844.57"/>
    </edge>
    <edge id=":1064393543_0" function="internal">
        <lane id=":1064393543_0_0" index="0" disallow="tram rail_urban rail rail_electric ship" speed="27.78" length="2.95" shape="757.80,745.74 757.09,746.29 756.63,746.69 756.19,747.12 755.57,747.76"/>
        <lane id=":1064393543_0_1" index="1" disallow="tram rail_urban rail rail_electric ship" speed="27.78" length="2.95" shape="755.79,743.13 755.11,743.65 754.65,744.02 754.22,744.42 753.62,745.03"/>
    </edge>
    <edge id=":1064393543_2" function="internal">
        <lane id=":1064393543_2_0" index="0" disallow="tram rail_urban rail rail_electric ship" speed="25.00" length="3.33" shape="755.79,743.13 754.44,746.17"/>
    </edge>
    <edge id=":1064393560_0" function="internal">
        <lane id=":1064393560_0_0" index="0" disallow="tram rail_urban rail rail_electric ship" speed="27.78" length="18.14" shape="728.56,789.66 727.51,794.81 726.54,798.35 726.08,801.88 726.53,807.01"/>
        <lane id=":1064393560_0_1" index="1" disallow="tram rail_urban rail rail_electric ship" speed="27.78" length="18.14" shape="725.29,789.18 724.20,794.62 723.22,798.37 722.78,802.11 723.27,807.54"/>
    </edge>
    <edge id=":1064393560_2" function="internal">
        <lane id=":1064393560_2_0" index="0" disallow="tram rail_urban rail rail_electric ship" speed="25.00" length="18.38" shape="721.65,789.24 722.07,792.90 722.25,796.84 722.53,801.55 723.27,807.54"/>
    </edge>
    <edge id=":1064393587_0" function="internal">
        <lane id=":1064393587_0_0" index="0" disallow="tram rail_urban rail rail_electric ship" speed="27.78" length="4.79" shape="717.62,865.89 716.53,864.44 715.77,863.13 715.36,861.97 715.28,860.95"/>
        <lane id=":1064393587_0_1" index="1" disallow="tram rail_urban rail rail_electric ship" speed="27.78" length="4.79" shape="720.78,864.53 720.15,863.84 719.40,862.99 718.78,862.10 718.57,861.28"/>
    </edge>
    <edge id=":1064393587_2" function="internal">
        <lane id=":1064393587_2_0" index="0" disallow="tram rail_urban rail rail_electric ship" speed="20.84" length="4.98" shape="713.50,865.55 714.19,864.23 714.69,863.33 715.05,862.39 715.28,860.95"/>
    </edge>
    <edge id=":1064403980_0" function="internal">
        <lane id=":1064403980_0_0" index="0" disallow="tram rail_urban rail rail_electric ship" speed="16.67" length="1.42" shape="739.65,764.94 739.42,763.53"/>
    </edge>
    <edge id=":1064403980_1" function="internal">
        <lane id=":1064403980_1_0" index="0" allow="bicycle" speed="5.56" length="5.48" width="1.00" shape="739.65,764.94 740.01,764.12 739.86,763.04 739.18,761.71 737.98,760.11"/>
    </edge>
    <edge id=":1064403980_2" function="internal">
        <lane id=":1064403980_2_0" index="0" allow="bicycle" speed="5.56" length="3.06" width="1.00" shape="739.65,764.94 739.94,764.04 740.37,763.64 740.94,763.75 741.66,764.36"/>
    </edge>
    <edge id=":1064403980_3" function="internal">
        <lane id=":1064403980_3_0" index="0" allow="bicycle" speed="16.67" length="4.19" width="1.00" shape="742.47,760.45 741.90,761.41 742.01,762.35 742.15,763.32 741.66,764.36"/>
    </edge>