<?xml version="1.0" encoding="UTF-8"?>

<!-- generated on 05/31/17 15:23:45 by SUMO duarouter Version 0.30.0
<?xml version="1.0" encoding="UTF-8"?>

<configuration xmlns:xsi="http://www.w3.org/2001/XMLSchema-instance" xsi:noNamespaceSchemaLocation="http://sumo.dlr.de/xsd/duarouterConfiguration.xsd">

    <input>
        <net-file value="map.net.xml"/>
        <trip-files value="trips.trips.xml"/>
    </input>

    <output>
        <output-file value="map.rou.xml"/>
    </output>

    <processing>
        <ignore-errors value="true"/>
    </processing>

    <time>
        <begin value="0"/>
        <end value="100.0"/>
    </time>

    <report>
        <no-warnings value="true"/>
        <no-step-log value="true"/>
    </report>

</configuration>

-->

<routes xmlns:xsi="http://www.w3.org/2001/XMLSchema-instance" xsi:noNamespaceSchemaLocation="http://sumo.dlr.de/xsd/routes_file.xsd">

  <!--vType id="ambulance" jmDriveAterRedTime="300" jmDriveAfterRedSpeed="5.56"/-->

  <vehicle id="76" depart="36.00">
        <route edges="324493313#1 -324493313#1 27122630#0 27122630#1 172550906 181315402#1 51844397 181324764#0 181324764#1 181324764#2 161667684#0 161667684#1"/>
    </vehicle>

    <vehicle id="91" depart="37.00">
        <route edges="-324493313#1 324493313#1 324493313#2 381393822 347976778#2 352150507#0 352150507#1 229080888"/>
    </vehicle>
  
    <vehicle id="93" depart="38.00">
      <route edges="-324493313#1 324493313#1 324493313#2 381393822 347976778#2 352150507#0 352150507#1 232588725 229080886 27154563#0 27154563#1"/>
    </vehicle>


    
    
    <!--vehicle id="ambulance_0" depart="60.00" color="1,1,1" type="ambulance" -->
    <vehicle id="ambulance_0" depart="60.00" color="1,1,1"  >
      <route edges="-324493313#1 -324493313#0"/>
    </vehicle>


    <!--<vehicle id="31" depart="1.00">
        <route edges="324493313#0 324493313#1 324493313#2 381393822 347976778#2 352150507#0 229080887#0 229080887#1 202463503#1 202463503#2 202463503#3 -4405726#0 27019639#0 27019639#1 27019639#2 27019639#3 27019639#4 29496199#0 24853050#2 24853053#1 27019615"/>
    </vehicle>

    
    
    <vehicle id="92" depart="92.00">
        <route edges="161667686#0 161667686#1 -172422901 51569193#1 181315401 352150470 181324763 91610806 202760013 202760033 91610457 105315932#0 28479691 173084747#0 173084747#1 -173084747#1"/>
    </vehicle>


      
    <vehicle id="99" depart="99.00">
        <route edges="125501515#1 181315402#0 181315402#1 51569193#0 51569193#1 181315401 161667679#0 161667679#1 347976778#1 -381393822 -324493313#2 -324493313#1"/>
    </vehicle>
-->
</routes>
    
