<?xml version="1.0" encoding="UTF-8"?>

<!-- generated on 05/31/17 15:23:45 by SUMO duarouter Version 0.30.0
<?xml version="1.0" encoding="UTF-8"?>

<configuration xmlns:xsi="http://www.w3.org/2001/XMLSchema-instance" xsi:noNamespaceSchemaLocation="http://sumo.dlr.de/xsd/duarouterConfiguration.xsd">

    <input>
        <net-file value="map.net.xml"/>
        <trip-files value="trips.trips.xml"/>
    </input>

    <output>
        <output-file value="map.rou.xml"/>
    </output>

    <processing>
        <ignore-errors value="true"/>
    </processing>

    <time>
        <begin value="0"/>
        <end value="100.0"/>
    </time>

    <report>
        <no-warnings value="true"/>
        <no-step-log value="true"/>
    </report>

</configuration>
-->

<routes xmlns:xsi="http://www.w3.org/2001/XMLSchema-instance" xsi:noNamespaceSchemaLocation="http://sumo.dlr.de/xsd/routes_file.xsd">
    <vehicle id="0" depart="0.00">
        <route edges="229080887#0 229080887#1 202463503#1 202463503#2 202463503#3 -4405726#0 27019639#0 27019639#1 27019639#2 27019639#3 27019639#4 29496199#0 29496199#1 161667678#0 161667678#1 161667680#0 161667680#1 161667680#2 161667680#3 91610458#0"/>
		                                        

    </vehicle>
    <vehicle id="1" depart="1.00">
        <route edges="-271885735#0 271885735#0 271885735#1 161667680#1 161667680#2 161667680#3 202760012#0 202760012#1 202760013 352150471 202760014 181324761 181315401 352150470 181324763 161667683#0"/>

  </vehicle>
    <vehicle id="2" depart="2.00">
        <route edges="4405726#1 -4405726#1 -4405726#0 -324493311#1 -324493311#0 -229080888 232588725 229080886 347976778#0 347976778#1 347976778#2 173829590#0 173829590#1 173829590#2 82117412#0 116065251 83480480 80832369"/>
    </vehicle>
    <vehicle id="3" depart="3.00">
        <route edges="161667692 181324764#2 181324762 181315402#0 181315402#1 51569193#0 172422901 161667686#2 161667686#3"/>
    </vehicle>
    <vehicle id="4" depart="4.00">
        <route edges="324493313#2 381393822 347976778#2 173829590#0 173829590#1 173829590#2 82117412#0 116065251"/>
    </vehicle>
    <vehicle id="5" depart="5.00">
        <route edges="-4405726#6 -4405726#5 -4405726#4 -4405726#3 -4405726#2 -4405726#1 -4405726#0 -324493311#1 -324493311#0 -229080888 232588725 229080886 27154563#0 27154563#1 27154563#2 181324763 91610806 202760013 352150471 202760014 161667686#0 161667686#1 161667686#2 161667686#3 181324764#0 24784585#0 123154900#1"/>
    </vehicle>
    <vehicle id="6" depart="6.00">
        <route edges="27019613#0 -27019613#0 24900988 161667678#0 161667678#1 161667689 161667693#0 161667693#1 161667693#2 4405726#0 4405726#1 4405726#2 4405726#3 4405726#4 4405726#5 4405726#6"/>
    </vehicle>
    <vehicle id="7" depart="7.00">
        <route edges="116065251 83480480 80832369 -107541319#5"/>
    </vehicle>
    <vehicle id="8" depart="8.00">
        <route edges="24730105 184545729 184545727#2 184545727#3 176380542 27019639#3 27019639#4 29496199#0 24853050#2 24853053#1 24730299 27019613#0 27019613#1 -28479693#1 -28479693#0 173084747#1"/>
    </vehicle>
    <vehicle id="10" depart="10.00">
        <route edges="116065251 83480480 80832369 -107541319#5 80678551#0 80678551#1 80832419 -80832419"/>
    </vehicle>
    <vehicle id="11" depart="11.00">
        <route edges="-4405726#6 -4405726#5 -4405726#4 -4405726#3 -4405726#2 -4405726#1 -4405726#0 -324493311#1 -324493311#0 -229080888 232588725 229080886 347976778#0 347976778#1 -381393822 -324493313#2"/>
    </vehicle>
    <vehicle id="12" depart="12.00">
        <route edges="324493313#0 27122630#0 27122630#1 172550906 181315402#1 51569193#0 51569193#1 181315401 352150470 181324763 91610806 202760013 202760033 91610457 105315932#0 105315932#1 173084751#0 173084751#1 173084752#0 173084752#1 -173084752#1"/>
    </vehicle>
    <vehicle id="13" depart="13.00">
        <route edges="-27019613#0 24900988 161667678#0 161667678#1 161667680#0 161667680#1 161667680#2 161667680#3 202760012#0 202760012#1 202760013 352150471 202760014 161667686#0 161667686#1 161667686#2 161667686#3 181324764#0 181324764#1 181324764#2 181324762 181315402#0 -172550906"/>
    </vehicle>
    <vehicle id="15" depart="15.00">
        <route edges="30987934#2 30987934#3 -173084752#1 -27019613#7 -27019613#6 -27019613#5 -24853055"/>
    </vehicle>
    <vehicle id="16" depart="16.00">
        <route edges="202130614#0 202130614#1 352150507#0 352150507#1 232588725 229080886 27154563#0 27154563#1 27154563#2 181324763 91610806 202760013 352150471 202760014 161667686#0 161667686#1 161667686#2 161667686#3 181324764#0 24784585#0 123154900#1"/>
    </vehicle>
    <vehicle id="17" depart="17.00">
        <route edges="173084752#0 -173084752#0 173084750 202760023#0 202760023#1 202760023#2 91610459 202760014 161667686#0 161667686#1 161667686#2 161667686#3 181324764#0 181324764#1 181324764#2 161667684#0 -474324192"/>
    </vehicle>
    <vehicle id="18" depart="18.00">
        <route edges="125501515#1 181315402#0 181315402#1 51569193#0 51569193#1 181315401 352150470 181324763 91610806 202760013 202760033 91610457 105315932#0 105315932#1 173084751#0 173084751#1 173084752#0 -27019613#7 -27019613#6 -27019613#5 -27019613#4"/>
    </vehicle>
    <vehicle id="19" depart="19.00">
        <route edges="125501515#1 181315402#0 181315402#1 51569193#0 51569193#1 181315401 352150470 181324763 91610806 202760013 202760033 91610457 105315932#0 105315932#1 173084751#0 173084751#1 173084752#0 -27019613#7 -27019613#6 -27019613#5 27019613#5"/>
    </vehicle>
    <vehicle id="21" depart="21.00">
        <route edges="123154900#1 202760023#2 91610459 202760014 181324761 181315401 352150470 181324763 161667683#0 161667683#1 161667683#2 161667683#3 161667693#0 161667693#1 28478913#0"/>
    </vehicle>
    <vehicle id="22" depart="22.00">
        <route edges="161667680#0 161667680#1 161667680#2 161667680#3 91610458#0 91610458#1 91610457 105315932#0 28479691 173084747#0 173084747#1 27019613#4"/>
    </vehicle>
    <vehicle id="24" depart="24.00">
        <route edges="80833231#1 229080887#1 202463503#1 202463503#2 202463503#3 4405726#1 4405726#2 4405726#3 4405726#4"/>
    </vehicle>
    <vehicle id="26" depart="26.00">
        <route edges="125501515#1"/>
    </vehicle>
    <vehicle id="27" depart="27.00">
        <route edges="27019613#5 -27019613#5 -27019613#4 -27019613#3 -28479694"/>
    </vehicle>
    <vehicle id="28" depart="28.00">
        <route edges="27154563#1 27154563#2 181324763 91610806 202760013 352150471 202760014 161667686#0"/>
    </vehicle>
    <vehicle id="29" depart="29.00">
        <route edges="27019613#4 27019613#5 27019613#6 27019613#7 -173084752#0 173084750 202760023#0 123154898"/>
    </vehicle>
    <vehicle id="30" depart="30.00">
        <route edges="271885755#0 271885735#0 161667683#3 173084745 29496196#0 24853050#1 24853050#2 24853053#1 24730299 27019613#0 27019613#1 -28479693#1"/>
    </vehicle>
    <vehicle id="31" depart="31.00">
        <route edges="324493313#0 324493313#1 324493313#2 381393822 347976778#2 352150507#0 229080887#0 229080887#1 202463503#1 202463503#2 202463503#3 -4405726#0 27019639#0 27019639#1 27019639#2 27019639#3 27019639#4 29496199#0 24853050#2 24853053#1 27019615"/>
    </vehicle>
    <vehicle id="32" depart="32.00">
        <route edges="173084747#1 -27019613#3 -27019613#2 -27019613#1 -27019613#0 24900988 161667678#0 161667678#1 161667680#0 161667680#1 161667680#2 161667680#3 202760012#0 202760012#1 202760013 352150471 202760014 161667686#0 161667686#1 161667686#2 161667686#3 181324764#0 181324764#1 181324764#2 161667684#0"/>
    </vehicle>
    <vehicle id="33" depart="33.00">
        <route edges="27019613#5 27019613#6 27019613#7 -173084752#0 173084750 202760023#0 202760023#1 202760023#2 91610459 202760014 181324761 181315401 161667679#0 161667679#1 347976778#1 347976778#2 173829590#0 173829590#1 173829590#2 -107541319#5 -107541319#4 -107541319#3 -107541319#2 -107541319#1 -107541319#0"/>
    </vehicle>
    <vehicle id="34" depart="34.00">
        <route edges="123154900#1 202760023#2 91610459 202760014 181324761 181315401 161667679#0 161667679#1 347976778#1 347976778#2 352150507#0 229080887#0 229080887#1 202463503#1 202463503#2 202463503#3 4405726#1 4405726#2 4405726#3 4405726#4 4405726#5 -4405726#5"/>
    </vehicle>
    <vehicle id="35" depart="35.00">
        <route edges="-229080888 229080888 202463503#0 202463503#1 202463503#2 202463503#3 4405726#1"/>
    </vehicle>
    <vehicle id="36" depart="36.00">
        <route edges="51569193#0 51569193#1 181315401 161667679#0 161667679#1 347976778#1 347976778#2 352150507#0 229080887#0 -80833231#1 -486755472"/>
    </vehicle>
    <vehicle id="37" depart="37.00">
        <route edges="381393822 347976778#2 352150507#0 229080887#0 229080887#1 202463503#1 202463503#2 202463503#3 4405726#1 4405726#2 4405726#3 -24779043"/>
    </vehicle>
    <vehicle id="38" depart="38.00">
        <route edges="116065251 83480480 80832369 82117412#0 82117412#1 82117412#2 352150507#1 232588725 229080886 347976778#0 347976778#1 -381393822 381393815 229080889#1"/>
    </vehicle>
    <vehicle id="39" depart="39.00">
        <route edges="24784585#0 123154900#1 202760023#2 91610459 202760014 161667686#0 161667686#1 161667686#2 161667686#3 181324764#0 181324764#1 181324764#2 161667684#0"/>
    </vehicle>
    <vehicle id="40" depart="40.00">
        <route edges="27019639#2 27019639#3 27019639#4 29496199#0 24853050#2 24853053#1 24730299 27019613#0 27019613#1"/>
    </vehicle>
    <vehicle id="41" depart="41.00">
        <route edges="28479694 -27019613#2 -27019613#1 -27019613#0 24900988 161667678#0 161667678#1 161667689 161667693#0 115947089 27019639#1 184545731"/>
    </vehicle>
    <vehicle id="42" depart="42.00">
        <route edges="51569193#0 51569193#1 181315401 352150470 181324763 91610806 202760013 202760033 91610457 105315932#0 28479691 173084747#0 173084747#1"/>
    </vehicle>
    <vehicle id="43" depart="43.00">
        <route edges="173084745 29496196#0 24853050#1 29496199#1 161667678#0 161667678#1 161667680#0 161667680#1 161667680#2 161667680#3 202760012#0 202760012#1 202760013 352150471 202760014 181324761 181315401 161667679#0 161667679#1 347976778#1 -381393822 381393815 229080889#1"/>
    </vehicle>
    <vehicle id="44" depart="44.00">
        <route edges="80678551#0 80678551#1 80832419 80833219 80833231#0 80833231#1 229080887#1 202463503#1 202463503#2 202463503#3 -4405726#0 -324493311#1 -324493311#0 -229080888 232588725 229080886 347976778#0 347976778#1 347976778#2 173829590#0 173829590#1 173829590#2 -107541319#5"/>
    </vehicle>
    <vehicle id="46" depart="46.00">
        <route edges="116065251 83480480 80832369 82117412#0 82117412#1 82117412#2 229080887#0 229080887#1 202463503#1 202463503#2 202463503#3 -4405726#0 27019639#0 27019639#1 27019639#2 27019639#3 27019639#4 29496199#0 24853050#2 24853053#1 27019615"/>
    </vehicle>
    <vehicle id="47" depart="47.00">
        <route edges="123154900#1 202760023#2 202760022 105315932#0 28479691 173084747#0 173084747#1 27019613#4"/>
    </vehicle>
    <vehicle id="48" depart="48.00">
        <route edges="83480480 80832369 82117412#0 82117412#1 82117412#2 352150507#1 232588725 229080886 27154563#0 27154563#1 27154563#2 181324763 91610806 202760013 202760033 91610457 105315932#0 105315932#1 202760021 202760023#0 123154898"/>
    </vehicle>
    <vehicle id="49" depart="49.00">
        <route edges="24784585#0 123154900#1 202760023#2 91610459 202760014 181324761 181315401 161667679#0 161667679#1 347976778#1 347976778#2 352150507#0 229080887#0 -80833231#1 -80833231#0 -80833219"/>
    </vehicle>
    <vehicle id="50" depart="50.00">
        <route edges="-24853074 30987934#1 30987934#2 30987934#3 -173084752#1 -173084752#0 173084750 202760023#0 202760023#1 202760023#2 91610459 202760014 181324761 181315401 161667679#0 161667679#1 347976778#1 347976778#2 173829590#0 173829590#1 173829590#2 82117412#0 116065251 83480480 80832369"/>
    </vehicle>
    <vehicle id="51" depart="51.00">
        <route edges="-24853055 30987934#0 30987934#1 30987934#2 30987934#3 -173084752#1 -27019613#7 -27019613#6 -27019613#5 -27019613#4 -173084747#1"/>
    </vehicle>
    <vehicle id="52" depart="52.00">
        <route edges="352150471 202760014 181324761 181315401 352150470 181324763 91610806 202760013 202760033 91610457 105315932#0 28479691 173084747#0 -173084747#0"/>
    </vehicle>
    <vehicle id="53" depart="53.00">
        <route edges="24784585#0 123154900#1 202760023#2 91610459 202760014 181324761 181315401 161667679#0 161667679#1 347976778#1 -381393822 -324493313#2"/>
    </vehicle>
    <vehicle id="54" depart="54.00">
        <route edges="107541319#4 107541319#5 82117412#0 82117412#1 82117412#2 352150507#1 232588725 229080886 27154563#0 27154563#1 27154563#2 181324763 91610806 202760013 202760033 91610457 105315932#0 105315932#1 202760021 202760023#0 202760023#1 202760023#2 91610459"/>
    </vehicle>
    <vehicle id="55" depart="55.00">
        <route edges="161667686#0 161667686#1 -172422901 51569193#1 181315401 161667679#0 161667679#1 347976778#1 347976778#2 173829590#0 173829590#1 173829590#2 -107541319#5"/>
    </vehicle>
    <vehicle id="56" depart="56.00">
        <route edges="161667678#1 161667680#0 161667680#1 161667680#2 161667680#3 91610458#0 91610458#1 91610457 105315932#0 28479691 173084747#0"/>
    </vehicle>
    <vehicle id="57" depart="57.00">
        <route edges="80832419 80833219 80833231#0 80833231#1 229080887#1 202463503#1 202463503#2 202463503#3 -4405726#0 27019639#0 27019639#1 27019639#2 27019639#3 27019639#4 29496199#0 29496199#1 161667678#0 161667678#1 161667680#0"/>
    </vehicle>
    <vehicle id="58" depart="58.00">
        <route edges="28479694 -27019613#2 -27019613#1 -27019613#0 24900988 161667678#0 161667678#1 161667680#0 161667680#1 161667680#2 161667680#3 202760012#0 202760012#1 202760013 352150471 202760014 181324761 181315401 161667679#0 161667679#1 347976778#1 347976778#2 352150507#0 229080887#0 229080887#1"/>
    </vehicle>
    <vehicle id="59" depart="59.00">
        <route edges="30987934#3 -173084752#1 -27019613#7 27019613#7"/>
    </vehicle>
    <vehicle id="60" depart="60.00">
        <route edges="80678551#0 80678551#1 80832419 80833219 80833231#0 80833231#1 229080887#1 202463503#1 202463503#2 202463503#3 -4405726#0 -324493311#1 -324493311#0 -229080888 232588725 229080886 27154563#0 27154563#1 27154563#2 181324763 91610806 202760013 352150471 202760014 161667686#0 161667686#1 161667686#2 161667686#3 181324764#0 24784585#0 123154900#1"/>
    </vehicle>
    <vehicle id="61" depart="61.00">
        <route edges="-27019613#3 -27019613#2 -27019613#1 -27019613#0 24900988 161667678#0 161667678#1 161667680#0 161667680#1 161667680#2 161667680#3 91610458#0 91610458#1 91610457 105315932#0 105315932#1 202760021 202760023#0 123154898"/>
    </vehicle>
    <vehicle id="62" depart="62.00">
        <route edges="324493311#0 -324493311#0 -229080888 232588725 229080886 27154563#0 27154563#1 27154563#2 181324763 91610806 202760013 352150471 202760014 161667686#0 161667686#1 161667686#2 161667686#3 181324764#0 181324764#1 181324764#2 161667684#0 -474324192"/>
    </vehicle>
    <vehicle id="63" depart="63.00">
        <route edges="-173084752#1 -173084752#0 173084750 202760023#0 202760023#1 202760023#2 91610459 202760014 161667686#0 161667686#1 161667686#2 161667686#3"/>
    </vehicle>
    <vehicle id="64" depart="64.00">
        <route edges="229080888 202463503#0 202463503#1 202463503#2 202463503#3 4405726#1 4405726#2 4405726#3 4405726#4 4405726#5 4405726#6"/>
    </vehicle>
    <vehicle id="65" depart="65.00">
        <route edges="172550906 181315402#1 51569193#0 51569193#1 181315401 161667679#0 161667679#1 347976778#1 347976778#2 352150507#0 229080887#0 229080887#1 202463503#1 202463503#2 202463503#3 4405726#1 4405726#2 4405726#3 4405726#4 4405726#5 4405726#6"/>
    </vehicle>
    <vehicle id="66" depart="66.00">
        <route edges="27019613#3 27019613#4 27019613#5 -27019613#5"/>
    </vehicle>
    <vehicle id="67" depart="67.00">
        <route edges="172422902#0 172422902#1 172422901 161667686#2 161667686#3 181324764#0 181324764#1 181324764#2 161667684#0"/>
    </vehicle>
    <vehicle id="68" depart="68.00">
        <route edges="-27019613#3 -27019613#2 -27019613#1 -27019613#0 24900988 161667678#0 161667678#1 161667689 161667693#0"/>
    </vehicle>
    <vehicle id="69" depart="69.00">
        <route edges="172550906 181315402#1 51569193#0 51569193#1 181315401 352150470 181324763 161667683#0 161667683#1 161667683#2 161667683#3 161667693#0 161667693#1 28478913#0"/>
    </vehicle>
    <vehicle id="70" depart="70.00">
        <route edges="161667686#0 161667686#1 -172422901 51569193#1 181315401 161667679#0 161667679#1 347976778#1 347976778#2 352150507#0 229080887#0 229080887#1 202463503#1 202463503#2 202463503#3 24730105 184545729 184545727#2 184545727#3 184545727#4 184545727#0 184545728"/>
    </vehicle>
    <vehicle id="71" depart="71.00">
        <route edges="24730097 184545727#3 184545727#4 184545727#0 184545727#1 184545727#2"/>
    </vehicle>
    <vehicle id="72" depart="72.00">
        <route edges="324493311#0 -324493311#0 -229080888 232588725 229080886 27154563#0 27154563#1 27154563#2 181324763 91610806 202760013 352150471 202760014 161667686#0 161667686#1 161667686#2 161667686#3 181324764#0 181324764#1 181324764#2 181324762 181315402#0 -172550906"/>
    </vehicle>
    <vehicle id="73" depart="73.00">
        <route edges="172422902#0 24730231 161667679#1 347976778#1 347976778#2 352150507#0 229080887#0 229080887#1 202463503#1 202463503#2 202463503#3 4405726#1 4405726#2 4405726#3 4405726#4 4405726#5 4405726#6"/>
    </vehicle>
    <vehicle id="74" depart="74.00">
        <route edges="161667680#2 161667680#3 202760012#0 202760012#1 202760013 352150471 202760014 181324761 181315401 161667679#0 161667679#1 347976778#1 -381393822 381393815 229080889#1"/>
    </vehicle>
    <vehicle id="75" depart="75.00">
        <route edges="125501515#1 181315402#0 181315402#1 51569193#0 51569193#1 181315401 161667679#0 161667679#1 347976778#1 -381393822 381393815 229080889#1"/>
    </vehicle>
    <vehicle id="76" depart="76.00">
        <route edges="324493313#1 -324493313#1 27122630#0 27122630#1 172550906 181315402#1 51844397 181324764#0 181324764#1 181324764#2 161667684#0 161667684#1"/>
    </vehicle>
    <vehicle id="77" depart="77.00">
        <route edges="381393822 347976778#2 352150507#0 352150507#1 232588725 229080886 27154563#0 27154563#1 27154563#2 181324763 91610806 202760013 202760033 91610457 105315932#0 105315932#1 202760021 202760023#0 123154898"/>
    </vehicle>
    <vehicle id="78" depart="78.00">
        <route edges="-28838377 -24712499 29496199#0 24853050#2 24853053#1 24730299 27019613#0 27019613#1 27019613#2 -28479694"/>
    </vehicle>
    <vehicle id="79" depart="79.00">
        <route edges="-229080888 232588725 229080886 347976778#0 347976778#1 347976778#2 173829590#0 173829590#1 173829590#2"/>
    </vehicle>
    <vehicle id="81" depart="81.00">
        <route edges="161667692 181324764#2 161667684#0 161667684#1"/>
    </vehicle>
    <vehicle id="84" depart="84.00">
        <route edges="229080889#1 27122630#1 172550906 181315402#1 51569193#0 51569193#1 181315401 161667679#0 161667679#1 347976778#1 347976778#2 352150507#0 229080887#0 229080887#1 202463503#1 202463503#2 202463503#3 4405726#1 4405726#2 4405726#3 -24779043"/>
    </vehicle>
    <vehicle id="85" depart="85.00">
        <route edges="27019639#0 27019639#1 27019639#2 27019639#3 27019639#4 29496199#0 29496199#1 161667678#0 161667678#1 161667689 161667693#0 161667693#1 28478913#0"/>
    </vehicle>
    <vehicle id="86" depart="86.00">
        <route edges="28479693#1 -27019613#1 -27019613#0 24900988 161667678#0 161667678#1 161667689 173084745 29496196#0 29496196#1 24712499 28838377"/>
    </vehicle>
    <vehicle id="87" depart="87.00">
        <route edges="123154900#0 123154900#1 202760023#2 91610459 202760014 161667686#0 161667686#1 161667686#2 161667686#3 181324764#0 181324764#1 181324764#2 181324762 181315402#0 181315402#1 51569193#0"/>
    </vehicle>
    <vehicle id="88" depart="88.00">
        <route edges="229080888 -229080888 232588725 229080886 347976778#0 347976778#1 -381393822 -324493313#2 324493313#2"/>
    </vehicle>
    <vehicle id="89" depart="89.00">
        <route edges="161667686#3 181324764#0 181324764#1 181324764#2 181324762 181315402#0 181315402#1 51569193#0 51569193#1 181315401 352150470 181324763 91610806 202760013 202760033 91610457 105315932#0 105315932#1 173084751#0 173084751#1 173084752#0 -27019613#7 -27019613#6 -27019613#5 -24853055 30987934#0 30987934#1 30987934#2 -280806035#1 -280806035#0"/>
    </vehicle>
    <vehicle id="90" depart="90.00">
        <route edges="125501515#1 181315402#0 181315402#1 51844397 181324764#0 24784585#0 123154900#1"/>
    </vehicle>
    <vehicle id="91" depart="91.00">
        <route edges="-324493313#1 324493313#1 324493313#2 381393822 347976778#2 352150507#0 352150507#1 229080888"/>
    </vehicle>
    <vehicle id="92" depart="92.00">
        <route edges="161667686#0 161667686#1 -172422901 51569193#1 181315401 352150470 181324763 91610806 202760013 202760033 91610457 105315932#0 28479691 173084747#0 173084747#1 -173084747#1"/>
    </vehicle>
    <vehicle id="93" depart="93.00">
        <route edges="-324493313#1 324493313#1 324493313#2 381393822 347976778#2 352150507#0 352150507#1 232588725 229080886 27154563#0 27154563#1"/>
    </vehicle>
    <vehicle id="95" depart="95.00">
        <route edges="4405726#4 -4405726#4 -4405726#3 -4405726#2 -4405726#1 -4405726#0 27019639#0 27019639#1 27019639#2 27019639#3 27019639#4 29496199#0 24853050#2 24853053#1 24730299 27019613#0 27019613#1 27019613#2 27019613#3 27019613#4 27019613#5"/>
    </vehicle>
    <vehicle id="96" depart="96.00">
        <route edges="202130614#0 202130614#1 352150507#0 352150507#1 232588725 229080886 27154563#0 27154563#1 27154563#2 181324763 91610806 202760013 202760033 91610457 105315932#0 105315932#1 173084751#0 173084751#1 173084752#0 -27019613#7 -27019613#6 -27019613#5 27019613#5"/>
    </vehicle>
    <vehicle id="97" depart="97.00">
        <route edges="123154900#1 202760023#2 91610459 202760014 161667686#0 161667686#1"/>
    </vehicle>
    <vehicle id="98" depart="98.00">
        <route edges="172550906 181315402#1 51569193#0 51569193#1 181315401 352150470 181324763 161667683#0 161667683#1 161667683#2"/>
    </vehicle>
    <vehicle id="99" depart="99.00">
        <route edges="125501515#1 181315402#0 181315402#1 51569193#0 51569193#1 181315401 161667679#0 161667679#1 347976778#1 -381393822 -324493313#2 -324493313#1"/>
    </vehicle>
</routes>
